# SFR package for MODFLOW-USG generated by Flopy 3.8.2
174 7 0 0 1.00000000 0.00010000 50 54 
4553 1 1 106.0
4554 1 2 8.0
4677 1 3 99.0
4678 1 4 63.0
4679 2 1 99.0
4680 2 2 97.0
4803 2 3 4.0
4804 2 4 100.0
4805 2 5 106.0
4806 2 6 88.0
4929 2 7 32.0
4930 2 8 122.0
5053 2 9 9.0
5054 2 10 106.0
5055 3 1 21.0
5178 3 2 104.0
5179 3 3 63.0
5302 3 4 56.0
5303 3 5 117.0
5304 3 6 13.0
5427 3 7 45.0
5428 4 1 88.0
5551 4 2 23.0
5552 4 3 103.0
5553 4 4 99.0
5554 4 5 100.0
5555 4 6 99.0
5556 4 7 100.0
5557 4 8 99.0
5558 4 9 100.0
5559 4 10 102.0
5682 4 11 10.0
5683 4 12 130.0
5684 4 13 8.0
5807 5 1 112.0
5808 5 2 43.0
5931 5 3 76.0
5932 5 4 110.0
5933 5 5 32.0
6056 5 6 76.0
6057 5 7 107.0
6058 5 8 77.0
6181 5 9 31.0
6182 5 10 108.0
6183 5 11 108.0
6184 5 12 15.0
6307 5 13 94.0
6308 5 14 109.0
6309 5 15 44.0
6432 5 16 67.0
6433 5 17 112.0
6434 5 18 50.0
6557 5 19 57.0
6558 5 20 102.0
6559 5 21 103.0
6560 5 22 102.0
6561 5 23 59.0
6684 5 24 43.0
6685 5 25 103.0
6686 5 26 102.0
6687 5 27 103.0
6688 5 28 98.0
6811 5 29 4.0
6812 5 30 103.0
6813 5 31 103.0
6814 5 32 100.0
6815 5 33 93.0
6692 5 34 22.0
6693 5 35 123.0
6570 5 36 33.0
6571 5 37 30.0
6448 6 1 99.0
6325 6 2 92.0
6326 6 3 16.0
6203 6 4 109.0
6080 6 5 80.0
6081 6 6 96.0
5958 6 7 14.0
5959 6 8 115.0
5960 6 9 78.0
5837 6 10 35.0
5838 6 11 111.0
5839 6 12 72.0
5716 6 13 41.0
5717 6 14 113.0
5718 6 15 56.0
5595 6 16 57.0
5596 6 17 110.0
5597 6 18 79.0
5474 6 19 27.0
5475 6 20 104.0
5476 6 21 103.0
5477 6 22 100.0
5478 6 23 100.0
5479 6 24 100.0
5480 6 25 100.0
5481 6 26 58.0
5359 6 27 99.0
5360 6 28 100.0
5361 6 29 101.0
5362 6 30 47.0
5485 6 31 106.0
5608 6 32 64.0
5609 6 33 42.0
5732 6 34 104.0
5855 6 35 114.0
5978 6 36 8.0
5979 6 37 129.0
6102 6 38 15.0
6103 6 39 127.0
6226 6 40 14.0
6227 6 41 135.0
6228 6 42 5.0
6351 6 43 97.0
6352 6 44 102.0
6353 6 45 102.0
6354 6 46 102.0
6355 6 47 92.0
6478 6 48 10.0
6479 6 49 102.0
6480 6 50 102.0
6481 6 51 101.0
6482 6 52 102.0
6483 6 53 102.0
6484 6 54 34.0
6607 6 55 67.0
6608 6 56 102.0
6609 6 57 101.0
6610 6 58 102.0
6611 6 59 101.0
6612 6 60 66.0
6735 6 61 36.0
6736 6 62 102.0
6737 6 63 102.0
6738 6 64 101.0
6739 6 65 102.0
6740 6 66 89.0
6863 6 67 13.0
6864 6 68 102.0
6865 6 69 101.0
6866 6 70 48.0
6867 7 1 92.0
6868 7 2 102.0
6869 7 3 28.0
6992 7 4 72.0
6993 7 5 102.0
6994 7 6 100.0
6995 7 7 100.0
6996 7 8 101.0
6997 7 9 28.0
6874 7 10 76.0
6875 7 11 109.0
6876 7 12 79.0
6753 7 13 33.0
6754 7 14 123.0
6755 7 15 19.0
6632 7 16 114.0
6633 7 17 30.0
6510 7 18 125.0
6387 7 19 9.0
6388 7 20 113.0
6265 7 21 60.0
6266 7 22 69.0
6143 7 23 61.0
6144 7 24 102.0
6145 7 25 54.0
6268 7 26 52.0
6269 7 27 106.0
6270 7 28 109.0
6271 7 29 9.0
6394 7 30 122.0
6395 7 31 28.0
6518 7 32 119.0
6641 7 33 19.0
7 0 0 0
1 1 2 0 1.18571 0 0 0 0.017 
1e-06 0.5 178.59413 17.0 
1e-06 0.5 178.56874 17.0 
2 1 3 0 0 0 0 0 0.017 
1e-06 0.5 178.55336 17.0 
1e-06 0.5 178.4932 17.0 
3 1 4 0 0 0 0 0 0.017 
1e-06 0.5 178.47273 17.0 
1e-06 0.5 178.2167 17.0 
4 1 5 0 0 0 0 0 0.017 
1e-06 0.5 178.14172 17.0 
1e-06 0.5 177.48534 17.0 
5 1 6 0 0 0 0 0 0.017 
1e-06 0.5 177.41385 17.0 
1e-06 0.5 175.6757 17.0 
6 1 7 0 0 0 0 0 0.017 
1e-06 0.5 175.60214 17.0 
1e-06 0.5 172.0304 17.0 
7 1 0 0 0 0 0 0 0.017 
1e-06 0.5 171.95155 17.0 
1e-06 0.5 170.3176 17.0 
7 0 0 0
1 1 2 0 0 0 0 0 0.017 
1e-06 0.5 178.59413 17.0 
1e-06 0.5 178.56874 17.0 
2 1 3 0 0 0 0 0 0.017 
1e-06 0.5 178.55336 17.0 
1e-06 0.5 178.4932 17.0 
3 1 4 0 0 0 0 0 0.017 
1e-06 0.5 178.47273 17.0 
1e-06 0.5 178.2167 17.0 
4 1 5 0 0 0 0 0 0.017 
1e-06 0.5 178.14172 17.0 
1e-06 0.5 177.48534 17.0 
5 1 6 0 0 0 0 0 0.017 
1e-06 0.5 177.41385 17.0 
1e-06 0.5 175.6757 17.0 
6 1 7 0 0 0 0 0 0.017 
1e-06 0.5 175.60214 17.0 
1e-06 0.5 172.0304 17.0 
7 1 0 0 0 0 0 0 0.017 
1e-06 0.5 171.95155 17.0 
1e-06 0.5 170.3176 17.0 
7 0 0 0
1 1 2 0 0 0 0 0 0.017 
1e-06 0.5 178.59413 17.0 
1e-06 0.5 178.56874 17.0 
2 1 3 0 0 0 0 0 0.017 
1e-06 0.5 178.55336 17.0 
1e-06 0.5 178.4932 17.0 
3 1 4 0 0 0 0 0 0.017 
1e-06 0.5 178.47273 17.0 
1e-06 0.5 178.2167 17.0 
4 1 5 0 0 0 0 0 0.017 
1e-06 0.5 178.14172 17.0 
1e-06 0.5 177.48534 17.0 
5 1 6 0 0 0 0 0 0.017 
1e-06 0.5 177.41385 17.0 
1e-06 0.5 175.6757 17.0 
6 1 7 0 0 0 0 0 0.017 
1e-06 0.5 175.60214 17.0 
1e-06 0.5 172.0304 17.0 
7 1 0 0 0 0 0 0 0.017 
1e-06 0.5 171.95155 17.0 
1e-06 0.5 170.3176 17.0 
7 0 0 0
1 1 2 0 0 0 0 0 0.017 
1e-06 0.5 178.59413 17.0 
1e-06 0.5 178.56874 17.0 
2 1 3 0 0 0 0 0 0.017 
1e-06 0.5 178.55336 17.0 
1e-06 0.5 178.4932 17.0 
3 1 4 0 0 0 0 0 0.017 
1e-06 0.5 178.47273 17.0 
1e-06 0.5 178.2167 17.0 
4 1 5 0 0 0 0 0 0.017 
1e-06 0.5 178.14172 17.0 
1e-06 0.5 177.48534 17.0 
5 1 6 0 0 0 0 0 0.017 
1e-06 0.5 177.41385 17.0 
1e-06 0.5 175.6757 17.0 
6 1 7 0 0 0 0 0 0.017 
1e-06 0.5 175.60214 17.0 
1e-06 0.5 172.0304 17.0 
7 1 0 0 0 0 0 0 0.017 
1e-06 0.5 171.95155 17.0 
1e-06 0.5 170.3176 17.0 
7 0 0 0
1 1 2 0 0 0 0 0 0.017 
1e-06 0.5 178.59413 17.0 
1e-06 0.5 178.56874 17.0 
2 1 3 0 0 0 0 0 0.017 
1e-06 0.5 178.55336 17.0 
1e-06 0.5 178.4932 17.0 
3 1 4 0 0 0 0 0 0.017 
1e-06 0.5 178.47273 17.0 
1e-06 0.5 178.2167 17.0 
4 1 5 0 0 0 0 0 0.017 
1e-06 0.5 178.14172 17.0 
1e-06 0.5 177.48534 17.0 
5 1 6 0 0 0 0 0 0.017 
1e-06 0.5 177.41385 17.0 
1e-06 0.5 175.6757 17.0 
6 1 7 0 0 0 0 0 0.017 
1e-06 0.5 175.60214 17.0 
1e-06 0.5 172.0304 17.0 
7 1 0 0 0 0 0 0 0.017 
1e-06 0.5 171.95155 17.0 
1e-06 0.5 170.3176 17.0 
7 0 0 0
1 1 2 0 0 0 0 0 0.017 
1e-06 0.5 178.59413 17.0 
1e-06 0.5 178.56874 17.0 
2 1 3 0 0 0 0 0 0.017 
1e-06 0.5 178.55336 17.0 
1e-06 0.5 178.4932 17.0 
3 1 4 0 0 0 0 0 0.017 
1e-06 0.5 178.47273 17.0 
1e-06 0.5 178.2167 17.0 
4 1 5 0 0 0 0 0 0.017 
1e-06 0.5 178.14172 17.0 
1e-06 0.5 177.48534 17.0 
5 1 6 0 0 0 0 0 0.017 
1e-06 0.5 177.41385 17.0 
1e-06 0.5 175.6757 17.0 
6 1 7 0 0 0 0 0 0.017 
1e-06 0.5 175.60214 17.0 
1e-06 0.5 172.0304 17.0 
7 1 0 0 0 0 0 0 0.017 
1e-06 0.5 171.95155 17.0 
1e-06 0.5 170.3176 17.0 
7 0 0 0
1 1 2 0 0 0 0 0 0.017 
1e-06 0.5 178.59413 17.0 
1e-06 0.5 178.56874 17.0 
2 1 3 0 0 0 0 0 0.017 
1e-06 0.5 178.55336 17.0 
1e-06 0.5 178.4932 17.0 
3 1 4 0 0 0 0 0 0.017 
1e-06 0.5 178.47273 17.0 
1e-06 0.5 178.2167 17.0 
4 1 5 0 0 0 0 0 0.017 
1e-06 0.5 178.14172 17.0 
1e-06 0.5 177.48534 17.0 
5 1 6 0 0 0 0 0 0.017 
1e-06 0.5 177.41385 17.0 
1e-06 0.5 175.6757 17.0 
6 1 7 0 0 0 0 0 0.017 
1e-06 0.5 175.60214 17.0 
1e-06 0.5 172.0304 17.0 
7 1 0 0 0 0 0 0 0.017 
1e-06 0.5 171.95155 17.0 
1e-06 0.5 170.3176 17.0 
7 0 0 0
1 1 2 0 0 0 0 0 0.017 
1e-06 0.5 178.59413 17.0 
1e-06 0.5 178.56874 17.0 
2 1 3 0 0 0 0 0 0.017 
1e-06 0.5 178.55336 17.0 
1e-06 0.5 178.4932 17.0 
3 1 4 0 0 0 0 0 0.017 
1e-06 0.5 178.47273 17.0 
1e-06 0.5 178.2167 17.0 
4 1 5 0 0 0 0 0 0.017 
1e-06 0.5 178.14172 17.0 
1e-06 0.5 177.48534 17.0 
5 1 6 0 0 0 0 0 0.017 
1e-06 0.5 177.41385 17.0 
1e-06 0.5 175.6757 17.0 
6 1 7 0 0 0 0 0 0.017 
1e-06 0.5 175.60214 17.0 
1e-06 0.5 172.0304 17.0 
7 1 0 0 0 0 0 0 0.017 
1e-06 0.5 171.95155 17.0 
1e-06 0.5 170.3176 17.0 
7 0 0 0
1 1 2 0 0 0 0 0 0.017 
1e-06 0.5 178.59413 17.0 
1e-06 0.5 178.56874 17.0 
2 1 3 0 0 0 0 0 0.017 
1e-06 0.5 178.55336 17.0 
1e-06 0.5 178.4932 17.0 
3 1 4 0 0 0 0 0 0.017 
1e-06 0.5 178.47273 17.0 
1e-06 0.5 178.2167 17.0 
4 1 5 0 0 0 0 0 0.017 
1e-06 0.5 178.14172 17.0 
1e-06 0.5 177.48534 17.0 
5 1 6 0 0 0 0 0 0.017 
1e-06 0.5 177.41385 17.0 
1e-06 0.5 175.6757 17.0 
6 1 7 0 0 0 0 0 0.017 
1e-06 0.5 175.60214 17.0 
1e-06 0.5 172.0304 17.0 
7 1 0 0 0 0 0 0 0.017 
1e-06 0.5 171.95155 17.0 
1e-06 0.5 170.3176 17.0 
7 0 0 0
1 1 2 0 0 0 0 0 0.017 
1e-06 0.5 178.59413 17.0 
1e-06 0.5 178.56874 17.0 
2 1 3 0 0 0 0 0 0.017 
1e-06 0.5 178.55336 17.0 
1e-06 0.5 178.4932 17.0 
3 1 4 0 0 0 0 0 0.017 
1e-06 0.5 178.47273 17.0 
1e-06 0.5 178.2167 17.0 
4 1 5 0 0 0 0 0 0.017 
1e-06 0.5 178.14172 17.0 
1e-06 0.5 177.48534 17.0 
5 1 6 0 0 0 0 0 0.017 
1e-06 0.5 177.41385 17.0 
1e-06 0.5 175.6757 17.0 
6 1 7 0 0 0 0 0 0.017 
1e-06 0.5 175.60214 17.0 
1e-06 0.5 172.0304 17.0 
7 1 0 0 0 0 0 0 0.017 
1e-06 0.5 171.95155 17.0 
1e-06 0.5 170.3176 17.0 
7 0 0 0
1 1 2 0 0 0 0 0 0.017 
1e-06 0.5 178.59413 17.0 
1e-06 0.5 178.56874 17.0 
2 1 3 0 0 0 0 0 0.017 
1e-06 0.5 178.55336 17.0 
1e-06 0.5 178.4932 17.0 
3 1 4 0 0 0 0 0 0.017 
1e-06 0.5 178.47273 17.0 
1e-06 0.5 178.2167 17.0 
4 1 5 0 0 0 0 0 0.017 
1e-06 0.5 178.14172 17.0 
1e-06 0.5 177.48534 17.0 
5 1 6 0 0 0 0 0 0.017 
1e-06 0.5 177.41385 17.0 
1e-06 0.5 175.6757 17.0 
6 1 7 0 0 0 0 0 0.017 
1e-06 0.5 175.60214 17.0 
1e-06 0.5 172.0304 17.0 
7 1 0 0 0 0 0 0 0.017 
1e-06 0.5 171.95155 17.0 
1e-06 0.5 170.3176 17.0 
7 0 0 0
1 1 2 0 0 0 0 0 0.017 
1e-06 0.5 178.59413 17.0 
1e-06 0.5 178.56874 17.0 
2 1 3 0 0 0 0 0 0.017 
1e-06 0.5 178.55336 17.0 
1e-06 0.5 178.4932 17.0 
3 1 4 0 0 0 0 0 0.017 
1e-06 0.5 178.47273 17.0 
1e-06 0.5 178.2167 17.0 
4 1 5 0 0 0 0 0 0.017 
1e-06 0.5 178.14172 17.0 
1e-06 0.5 177.48534 17.0 
5 1 6 0 0 0 0 0 0.017 
1e-06 0.5 177.41385 17.0 
1e-06 0.5 175.6757 17.0 
6 1 7 0 0 0 0 0 0.017 
1e-06 0.5 175.60214 17.0 
1e-06 0.5 172.0304 17.0 
7 1 0 0 0 0 0 0 0.017 
1e-06 0.5 171.95155 17.0 
1e-06 0.5 170.3176 17.0 
7 0 0 0
1 1 2 0 0 0 0 0 0.017 
1e-06 0.5 178.59413 17.0 
1e-06 0.5 178.56874 17.0 
2 1 3 0 0 0 0 0 0.017 
1e-06 0.5 178.55336 17.0 
1e-06 0.5 178.4932 17.0 
3 1 4 0 0 0 0 0 0.017 
1e-06 0.5 178.47273 17.0 
1e-06 0.5 178.2167 17.0 
4 1 5 0 0 0 0 0 0.017 
1e-06 0.5 178.14172 17.0 
1e-06 0.5 177.48534 17.0 
5 1 6 0 0 0 0 0 0.017 
1e-06 0.5 177.41385 17.0 
1e-06 0.5 175.6757 17.0 
6 1 7 0 0 0 0 0 0.017 
1e-06 0.5 175.60214 17.0 
1e-06 0.5 172.0304 17.0 
7 1 0 0 0 0 0 0 0.017 
1e-06 0.5 171.95155 17.0 
1e-06 0.5 170.3176 17.0 
7 0 0 0
1 1 2 0 0 0 0 0 0.017 
1e-06 0.5 178.59413 17.0 
1e-06 0.5 178.56874 17.0 
2 1 3 0 0 0 0 0 0.017 
1e-06 0.5 178.55336 17.0 
1e-06 0.5 178.4932 17.0 
3 1 4 0 0 0 0 0 0.017 
1e-06 0.5 178.47273 17.0 
1e-06 0.5 178.2167 17.0 
4 1 5 0 0 0 0 0 0.017 
1e-06 0.5 178.14172 17.0 
1e-06 0.5 177.48534 17.0 
5 1 6 0 0 0 0 0 0.017 
1e-06 0.5 177.41385 17.0 
1e-06 0.5 175.6757 17.0 
6 1 7 0 0 0 0 0 0.017 
1e-06 0.5 175.60214 17.0 
1e-06 0.5 172.0304 17.0 
7 1 0 0 0 0 0 0 0.017 
1e-06 0.5 171.95155 17.0 
1e-06 0.5 170.3176 17.0 
7 0 0 0
1 1 2 0 0 0 0 0 0.017 
1e-06 0.5 178.59413 17.0 
1e-06 0.5 178.56874 17.0 
2 1 3 0 0 0 0 0 0.017 
1e-06 0.5 178.55336 17.0 
1e-06 0.5 178.4932 17.0 
3 1 4 0 0 0 0 0 0.017 
1e-06 0.5 178.47273 17.0 
1e-06 0.5 178.2167 17.0 
4 1 5 0 0 0 0 0 0.017 
1e-06 0.5 178.14172 17.0 
1e-06 0.5 177.48534 17.0 
5 1 6 0 0 0 0 0 0.017 
1e-06 0.5 177.41385 17.0 
1e-06 0.5 175.6757 17.0 
6 1 7 0 0 0 0 0 0.017 
1e-06 0.5 175.60214 17.0 
1e-06 0.5 172.0304 17.0 
7 1 0 0 0 0 0 0 0.017 
1e-06 0.5 171.95155 17.0 
1e-06 0.5 170.3176 17.0 
7 0 0 0
1 1 2 0 0 0 0 0 0.017 
1e-06 0.5 178.59413 17.0 
1e-06 0.5 178.56874 17.0 
2 1 3 0 0 0 0 0 0.017 
1e-06 0.5 178.55336 17.0 
1e-06 0.5 178.4932 17.0 
3 1 4 0 0 0 0 0 0.017 
1e-06 0.5 178.47273 17.0 
1e-06 0.5 178.2167 17.0 
4 1 5 0 0 0 0 0 0.017 
1e-06 0.5 178.14172 17.0 
1e-06 0.5 177.48534 17.0 
5 1 6 0 0 0 0 0 0.017 
1e-06 0.5 177.41385 17.0 
1e-06 0.5 175.6757 17.0 
6 1 7 0 0 0 0 0 0.017 
1e-06 0.5 175.60214 17.0 
1e-06 0.5 172.0304 17.0 
7 1 0 0 0 0 0 0 0.017 
1e-06 0.5 171.95155 17.0 
1e-06 0.5 170.3176 17.0 
7 0 0 0
1 1 2 0 1.41429 0 0 0 0.017 
1e-06 0.5 178.59413 17.0 
1e-06 0.5 178.56874 17.0 
2 1 3 0 0 0 0 0 0.017 
1e-06 0.5 178.55336 17.0 
1e-06 0.5 178.4932 17.0 
3 1 4 0 0 0 0 0 0.017 
1e-06 0.5 178.47273 17.0 
1e-06 0.5 178.2167 17.0 
4 1 5 0 0 0 0 0 0.017 
1e-06 0.5 178.14172 17.0 
1e-06 0.5 177.48534 17.0 
5 1 6 0 0 0 0 0 0.017 
1e-06 0.5 177.41385 17.0 
1e-06 0.5 175.6757 17.0 
6 1 7 0 0 0 0 0 0.017 
1e-06 0.5 175.60214 17.0 
1e-06 0.5 172.0304 17.0 
7 1 0 0 0 0 0 0 0.017 
1e-06 0.5 171.95155 17.0 
1e-06 0.5 170.3176 17.0 
7 0 0 0
1 1 2 0 8.52857 0 0 0 0.017 
1e-06 0.5 178.59413 17.0 
1e-06 0.5 178.56874 17.0 
2 1 3 0 0 0 0 0 0.017 
1e-06 0.5 178.55336 17.0 
1e-06 0.5 178.4932 17.0 
3 1 4 0 0 0 0 0 0.017 
1e-06 0.5 178.47273 17.0 
1e-06 0.5 178.2167 17.0 
4 1 5 0 0 0 0 0 0.017 
1e-06 0.5 178.14172 17.0 
1e-06 0.5 177.48534 17.0 
5 1 6 0 0 0 0 0 0.017 
1e-06 0.5 177.41385 17.0 
1e-06 0.5 175.6757 17.0 
6 1 7 0 -2.98629 0 0 0 0.017 
1e-06 0.5 175.60214 17.0 
1e-06 0.5 172.0304 17.0 
7 1 0 0 0 0 0 0 0.017 
1e-06 0.5 171.95155 17.0 
1e-06 0.5 170.3176 17.0 
7 0 0 0
1 1 2 0 14.25314 0 0 0 0.017 
1e-06 0.5 178.59413 17.0 
1e-06 0.5 178.56874 17.0 
2 1 3 0 0 0 0 0 0.017 
1e-06 0.5 178.55336 17.0 
1e-06 0.5 178.4932 17.0 
3 1 4 0 0 0 0 0 0.017 
1e-06 0.5 178.47273 17.0 
1e-06 0.5 178.2167 17.0 
4 1 5 0 0 0 0 0 0.017 
1e-06 0.5 178.14172 17.0 
1e-06 0.5 177.48534 17.0 
5 1 6 0 0 0 0 0 0.017 
1e-06 0.5 177.41385 17.0 
1e-06 0.5 175.6757 17.0 
6 1 7 0 -6.77257 0 0 0 0.017 
1e-06 0.5 175.60214 17.0 
1e-06 0.5 172.0304 17.0 
7 1 0 0 0 0 0 0 0.017 
1e-06 0.5 171.95155 17.0 
1e-06 0.5 170.3176 17.0 
7 0 0 0
1 1 2 0 18.56129 0 0 0 0.017 
1e-06 0.5 178.59413 17.0 
1e-06 0.5 178.56874 17.0 
2 1 3 0 0 0 0 0 0.017 
1e-06 0.5 178.55336 17.0 
1e-06 0.5 178.4932 17.0 
3 1 4 0 0 0 0 0 0.017 
1e-06 0.5 178.47273 17.0 
1e-06 0.5 178.2167 17.0 
4 1 5 0 0 0 0 0 0.017 
1e-06 0.5 178.14172 17.0 
1e-06 0.5 177.48534 17.0 
5 1 6 0 -0.176 0 0 0 0.017 
1e-06 0.5 177.41385 17.0 
1e-06 0.5 175.6757 17.0 
6 1 7 0 -9.44943 0 0 0 0.017 
1e-06 0.5 175.60214 17.0 
1e-06 0.5 172.0304 17.0 
7 1 0 0 -0.04286 0 0 0 0.017 
1e-06 0.5 171.95155 17.0 
1e-06 0.5 170.3176 17.0 
7 0 0 0
1 1 2 0 20.27486 0 0 0 0.017 
1e-06 0.5 178.59413 17.0 
1e-06 0.5 178.56874 17.0 
2 1 3 0 -0.15257 0 0 0 0.017 
1e-06 0.5 178.55336 17.0 
1e-06 0.5 178.4932 17.0 
3 1 4 0 0 0 0 0 0.017 
1e-06 0.5 178.47273 17.0 
1e-06 0.5 178.2167 17.0 
4 1 5 0 -0.15257 0 0 0 0.017 
1e-06 0.5 178.14172 17.0 
1e-06 0.5 177.48534 17.0 
5 1 6 0 -0.308 0 0 0 0.017 
1e-06 0.5 177.41385 17.0 
1e-06 0.5 175.6757 17.0 
6 1 7 0 -10.17829 0 0 0 0.017 
1e-06 0.5 175.60214 17.0 
1e-06 0.5 172.0304 17.0 
7 1 0 0 -0.04286 0 0 0 0.017 
1e-06 0.5 171.95155 17.0 
1e-06 0.5 170.3176 17.0 
7 0 0 0
1 1 2 0 21.85471 0 0 0 0.017 
1e-06 0.5 178.59413 17.0 
1e-06 0.5 178.56874 17.0 
2 1 3 0 -0.10171 0 0 0 0.017 
1e-06 0.5 178.55336 17.0 
1e-06 0.5 178.4932 17.0 
3 1 4 0 0 0 0 0 0.017 
1e-06 0.5 178.47273 17.0 
1e-06 0.5 178.2167 17.0 
4 1 5 0 -0.10171 0 0 0 0.017 
1e-06 0.5 178.14172 17.0 
1e-06 0.5 177.48534 17.0 
5 1 6 0 -0.308 0 0 0 0.017 
1e-06 0.5 177.41385 17.0 
1e-06 0.5 175.6757 17.0 
6 1 7 0 -11.18971 0 0 0 0.017 
1e-06 0.5 175.60214 17.0 
1e-06 0.5 172.0304 17.0 
7 1 0 0 0 0 0 0 0.017 
1e-06 0.5 171.95155 17.0 
1e-06 0.5 170.3176 17.0 
7 0 0 0
1 1 2 0 23.21386 0 0 0 0.017 
1e-06 0.5 178.59413 17.0 
1e-06 0.5 178.56874 17.0 
2 1 3 0 -0.05086 0 0 0 0.017 
1e-06 0.5 178.55336 17.0 
1e-06 0.5 178.4932 17.0 
3 1 4 0 0 0 0 0 0.017 
1e-06 0.5 178.47273 17.0 
1e-06 0.5 178.2167 17.0 
4 1 5 0 -0.05086 0 0 0 0.017 
1e-06 0.5 178.14172 17.0 
1e-06 0.5 177.48534 17.0 
5 1 6 0 -0.308 0 0 0 0.017 
1e-06 0.5 177.41385 17.0 
1e-06 0.5 175.6757 17.0 
6 1 7 0 -11.48571 0 0 0 0.017 
1e-06 0.5 175.60214 17.0 
1e-06 0.5 172.0304 17.0 
7 1 0 0 0 0 0 0 0.017 
1e-06 0.5 171.95155 17.0 
1e-06 0.5 170.3176 17.0 
7 0 0 0
1 1 2 0 26.11871 0 0 0 0.017 
1e-06 0.5 178.59413 17.0 
1e-06 0.5 178.56874 17.0 
2 1 3 0 -0.10171 0 0 0 0.017 
1e-06 0.5 178.55336 17.0 
1e-06 0.5 178.4932 17.0 
3 1 4 0 -0.05086 0 0 0 0.017 
1e-06 0.5 178.47273 17.0 
1e-06 0.5 178.2167 17.0 
4 1 5 0 -0.15257 0 0 0 0.017 
1e-06 0.5 178.14172 17.0 
1e-06 0.5 177.48534 17.0 
5 1 6 0 -0.23371 0 0 0 0.017 
1e-06 0.5 177.41385 17.0 
1e-06 0.5 175.6757 17.0 
6 1 7 0 -11.20686 0 0 0 0.017 
1e-06 0.5 175.60214 17.0 
1e-06 0.5 172.0304 17.0 
7 1 0 0 -0.153 0 0 0 0.017 
1e-06 0.5 171.95155 17.0 
1e-06 0.5 170.3176 17.0 
7 0 0 0
1 1 2 0 31.53129 0 0 0 0.017 
1e-06 0.5 178.59413 17.0 
1e-06 0.5 178.56874 17.0 
2 1 3 0 -0.15257 0 0 0 0.017 
1e-06 0.5 178.55336 17.0 
1e-06 0.5 178.4932 17.0 
3 1 4 0 -0.15257 0 0 0 0.017 
1e-06 0.5 178.47273 17.0 
1e-06 0.5 178.2167 17.0 
4 1 5 0 -0.30514 0 0 0 0.017 
1e-06 0.5 178.14172 17.0 
1e-06 0.5 177.48534 17.0 
5 1 6 0 -0.356 0 0 0 0.017 
1e-06 0.5 177.41385 17.0 
1e-06 0.5 175.6757 17.0 
6 1 7 0 -11.77557 0 0 0 0.017 
1e-06 0.5 175.60214 17.0 
1e-06 0.5 172.0304 17.0 
7 1 0 0 -0.39443 0 0 0 0.017 
1e-06 0.5 171.95155 17.0 
1e-06 0.5 170.3176 17.0 
7 0 0 0
1 1 2 0 32.89529 0 0 0 0.017 
1e-06 0.5 178.59413 17.0 
1e-06 0.5 178.56874 17.0 
2 1 3 0 -0.15257 0 0 0 0.017 
1e-06 0.5 178.55336 17.0 
1e-06 0.5 178.4932 17.0 
3 1 4 0 -0.15257 0 0 0 0.017 
1e-06 0.5 178.47273 17.0 
1e-06 0.5 178.2167 17.0 
4 1 5 0 -0.30514 0 0 0 0.017 
1e-06 0.5 178.14172 17.0 
1e-06 0.5 177.48534 17.0 
5 1 6 0 -0.356 0 0 0 0.017 
1e-06 0.5 177.41385 17.0 
1e-06 0.5 175.6757 17.0 
6 1 7 0 -11.84843 0 0 0 0.017 
1e-06 0.5 175.60214 17.0 
1e-06 0.5 172.0304 17.0 
7 1 0 0 -0.04286 0 0 0 0.017 
1e-06 0.5 171.95155 17.0 
1e-06 0.5 170.3176 17.0 
7 0 0 0
1 1 2 0 33.89971 0 0 0 0.017 
1e-06 0.5 178.59413 17.0 
1e-06 0.5 178.56874 17.0 
2 1 3 0 -0.15257 0 0 0 0.017 
1e-06 0.5 178.55336 17.0 
1e-06 0.5 178.4932 17.0 
3 1 4 0 -0.15257 0 0 0 0.017 
1e-06 0.5 178.47273 17.0 
1e-06 0.5 178.2167 17.0 
4 1 5 0 -0.30514 0 0 0 0.017 
1e-06 0.5 178.14172 17.0 
1e-06 0.5 177.48534 17.0 
5 1 6 0 -0.40571 0 0 0 0.017 
1e-06 0.5 177.41385 17.0 
1e-06 0.5 175.6757 17.0 
6 1 7 0 -11.78686 0 0 0 0.017 
1e-06 0.5 175.60214 17.0 
1e-06 0.5 172.0304 17.0 
7 1 0 0 -0.22543 0 0 0 0.017 
1e-06 0.5 171.95155 17.0 
1e-06 0.5 170.3176 17.0 
7 0 0 0
1 1 2 0 32.933 0 0 0 0.017 
1e-06 0.5 178.59413 17.0 
1e-06 0.5 178.56874 17.0 
2 1 3 0 -0.14571 0 0 0 0.017 
1e-06 0.5 178.55336 17.0 
1e-06 0.5 178.4932 17.0 
3 1 4 0 -0.14171 0 0 0 0.017 
1e-06 0.5 178.47273 17.0 
1e-06 0.5 178.2167 17.0 
4 1 5 0 -0.28743 0 0 0 0.017 
1e-06 0.5 178.14172 17.0 
1e-06 0.5 177.48534 17.0 
5 1 6 0 -0.34571 0 0 0 0.017 
1e-06 0.5 177.41385 17.0 
1e-06 0.5 175.6757 17.0 
6 1 7 0 -11.68557 0 0 0 0.017 
1e-06 0.5 175.60214 17.0 
1e-06 0.5 172.0304 17.0 
7 1 0 0 0 0 0 0 0.017 
1e-06 0.5 171.95155 17.0 
1e-06 0.5 170.3176 17.0 
7 0 0 0
1 1 2 0 31.23629 0 0 0 0.017 
1e-06 0.5 178.59413 17.0 
1e-06 0.5 178.56874 17.0 
2 1 3 0 -0.14229 0 0 0 0.017 
1e-06 0.5 178.55336 17.0 
1e-06 0.5 178.4932 17.0 
3 1 4 0 -0.14229 0 0 0 0.017 
1e-06 0.5 178.47273 17.0 
1e-06 0.5 178.2167 17.0 
4 1 5 0 -0.28457 0 0 0 0.017 
1e-06 0.5 178.14172 17.0 
1e-06 0.5 177.48534 17.0 
5 1 6 0 -0.38314 0 0 0 0.017 
1e-06 0.5 177.41385 17.0 
1e-06 0.5 175.6757 17.0 
6 1 7 0 -11.43371 0 0 0 0.017 
1e-06 0.5 175.60214 17.0 
1e-06 0.5 172.0304 17.0 
7 1 0 0 -0.30429 0 0 0 0.017 
1e-06 0.5 171.95155 17.0 
1e-06 0.5 170.3176 17.0 
7 0 0 0
1 1 2 0 25.54714 0 0 0 0.017 
1e-06 0.5 178.59413 17.0 
1e-06 0.5 178.56874 17.0 
2 1 3 0 -0.14229 0 0 0 0.017 
1e-06 0.5 178.55336 17.0 
1e-06 0.5 178.4932 17.0 
3 1 4 0 -0.14229 0 0 0 0.017 
1e-06 0.5 178.47273 17.0 
1e-06 0.5 178.2167 17.0 
4 1 5 0 -0.28457 0 0 0 0.017 
1e-06 0.5 178.14172 17.0 
1e-06 0.5 177.48534 17.0 
5 1 6 0 -0.332 0 0 0 0.017 
1e-06 0.5 177.41385 17.0 
1e-06 0.5 175.6757 17.0 
6 1 7 0 -11.20714 0 0 0 0.017 
1e-06 0.5 175.60214 17.0 
1e-06 0.5 172.0304 17.0 
7 1 0 0 0 0 0 0 0.017 
1e-06 0.5 171.95155 17.0 
1e-06 0.5 170.3176 17.0 
7 0 0 0
1 1 2 0 21.87514 0 0 0 0.017 
1e-06 0.5 178.59413 17.0 
1e-06 0.5 178.56874 17.0 
2 1 3 0 -0.06629 0 0 0 0.017 
1e-06 0.5 178.55336 17.0 
1e-06 0.5 178.4932 17.0 
3 1 4 0 0 0 0 0 0.017 
1e-06 0.5 178.47273 17.0 
1e-06 0.5 178.2167 17.0 
4 1 5 0 -0.06629 0 0 0 0.017 
1e-06 0.5 178.14172 17.0 
1e-06 0.5 177.48534 17.0 
5 1 6 0 -0.23714 0 0 0 0.017 
1e-06 0.5 177.41385 17.0 
1e-06 0.5 175.6757 17.0 
6 1 7 0 -7.83843 0 0 0 0.017 
1e-06 0.5 175.60214 17.0 
1e-06 0.5 172.0304 17.0 
7 1 0 0 -0.21429 0 0 0 0.017 
1e-06 0.5 171.95155 17.0 
1e-06 0.5 170.3176 17.0 
7 0 0 0
1 1 2 0 16.85229 0 0 0 0.017 
1e-06 0.5 178.59413 17.0 
1e-06 0.5 178.56874 17.0 
2 1 3 0 0 0 0 0 0.017 
1e-06 0.5 178.55336 17.0 
1e-06 0.5 178.4932 17.0 
3 1 4 0 -0.05086 0 0 0 0.017 
1e-06 0.5 178.47273 17.0 
1e-06 0.5 178.2167 17.0 
4 1 5 0 -0.05086 0 0 0 0.017 
1e-06 0.5 178.14172 17.0 
1e-06 0.5 177.48534 17.0 
5 1 6 0 -0.10171 0 0 0 0.017 
1e-06 0.5 177.41385 17.0 
1e-06 0.5 175.6757 17.0 
6 1 7 0 -3.48257 0 0 0 0.017 
1e-06 0.5 175.60214 17.0 
1e-06 0.5 172.0304 17.0 
7 1 0 0 0 0 0 0 0.017 
1e-06 0.5 171.95155 17.0 
1e-06 0.5 170.3176 17.0 
7 0 0 0
1 1 2 0 7.87143 0 0 0 0.017 
1e-06 0.5 178.59413 17.0 
1e-06 0.5 178.56874 17.0 
2 1 3 0 0 0 0 0 0.017 
1e-06 0.5 178.55336 17.0 
1e-06 0.5 178.4932 17.0 
3 1 4 0 0 0 0 0 0.017 
1e-06 0.5 178.47273 17.0 
1e-06 0.5 178.2167 17.0 
4 1 5 0 0 0 0 0 0.017 
1e-06 0.5 178.14172 17.0 
1e-06 0.5 177.48534 17.0 
5 1 6 0 0 0 0 0 0.017 
1e-06 0.5 177.41385 17.0 
1e-06 0.5 175.6757 17.0 
6 1 7 0 -0.25857 0 0 0 0.017 
1e-06 0.5 175.60214 17.0 
1e-06 0.5 172.0304 17.0 
7 1 0 0 0 0 0 0 0.017 
1e-06 0.5 171.95155 17.0 
1e-06 0.5 170.3176 17.0 
7 0 0 0
1 1 2 0 12.18 0 0 0 0.017 
1e-06 0.5 178.59413 17.0 
1e-06 0.5 178.56874 17.0 
2 1 3 0 0 0 0 0 0.017 
1e-06 0.5 178.55336 17.0 
1e-06 0.5 178.4932 17.0 
3 1 4 0 0 0 0 0 0.017 
1e-06 0.5 178.47273 17.0 
1e-06 0.5 178.2167 17.0 
4 1 5 0 0 0 0 0 0.017 
1e-06 0.5 178.14172 17.0 
1e-06 0.5 177.48534 17.0 
5 1 6 0 0 0 0 0 0.017 
1e-06 0.5 177.41385 17.0 
1e-06 0.5 175.6757 17.0 
6 1 7 0 -2.87714 0 0 0 0.017 
1e-06 0.5 175.60214 17.0 
1e-06 0.5 172.0304 17.0 
7 1 0 0 0 0 0 0 0.017 
1e-06 0.5 171.95155 17.0 
1e-06 0.5 170.3176 17.0 
7 0 0 0
1 1 2 0 9.94143 0 0 0 0.017 
1e-06 0.5 178.59413 17.0 
1e-06 0.5 178.56874 17.0 
2 1 3 0 0 0 0 0 0.017 
1e-06 0.5 178.55336 17.0 
1e-06 0.5 178.4932 17.0 
3 1 4 0 0 0 0 0 0.017 
1e-06 0.5 178.47273 17.0 
1e-06 0.5 178.2167 17.0 
4 1 5 0 0 0 0 0 0.017 
1e-06 0.5 178.14172 17.0 
1e-06 0.5 177.48534 17.0 
5 1 6 0 0 0 0 0 0.017 
1e-06 0.5 177.41385 17.0 
1e-06 0.5 175.6757 17.0 
6 1 7 0 0 0 0 0 0.017 
1e-06 0.5 175.60214 17.0 
1e-06 0.5 172.0304 17.0 
7 1 0 0 0 0 0 0 0.017 
1e-06 0.5 171.95155 17.0 
1e-06 0.5 170.3176 17.0 
7 0 0 0
1 1 2 0 17.52086 0 0 0 0.017 
1e-06 0.5 178.59413 17.0 
1e-06 0.5 178.56874 17.0 
2 1 3 0 -0.20343 0 0 0 0.017 
1e-06 0.5 178.55336 17.0 
1e-06 0.5 178.4932 17.0 
3 1 4 0 0 0 0 0 0.017 
1e-06 0.5 178.47273 17.0 
1e-06 0.5 178.2167 17.0 
4 1 5 0 -0.20343 0 0 0 0.017 
1e-06 0.5 178.14172 17.0 
1e-06 0.5 177.48534 17.0 
5 1 6 0 -0.15257 0 0 0 0.017 
1e-06 0.5 177.41385 17.0 
1e-06 0.5 175.6757 17.0 
6 1 7 0 -5.50371 0 0 0 0.017 
1e-06 0.5 175.60214 17.0 
1e-06 0.5 172.0304 17.0 
7 1 0 0 0 0 0 0 0.017 
1e-06 0.5 171.95155 17.0 
1e-06 0.5 170.3176 17.0 
7 0 0 0
1 1 2 0 20.331 0 0 0 0.017 
1e-06 0.5 178.59413 17.0 
1e-06 0.5 178.56874 17.0 
2 1 3 0 -0.10171 0 0 0 0.017 
1e-06 0.5 178.55336 17.0 
1e-06 0.5 178.4932 17.0 
3 1 4 0 0 0 0 0 0.017 
1e-06 0.5 178.47273 17.0 
1e-06 0.5 178.2167 17.0 
4 1 5 0 -0.10171 0 0 0 0.017 
1e-06 0.5 178.14172 17.0 
1e-06 0.5 177.48534 17.0 
5 1 6 0 -0.24743 0 0 0 0.017 
1e-06 0.5 177.41385 17.0 
1e-06 0.5 175.6757 17.0 
6 1 7 0 -5.973 0 0 0 0.017 
1e-06 0.5 175.60214 17.0 
1e-06 0.5 172.0304 17.0 
7 1 0 0 0 0 0 0 0.017 
1e-06 0.5 171.95155 17.0 
1e-06 0.5 170.3176 17.0 
7 0 0 0
1 1 2 0 18.14071 0 0 0 0.017 
1e-06 0.5 178.59413 17.0 
1e-06 0.5 178.56874 17.0 
2 1 3 0 0 0 0 0 0.017 
1e-06 0.5 178.55336 17.0 
1e-06 0.5 178.4932 17.0 
3 1 4 0 0 0 0 0 0.017 
1e-06 0.5 178.47273 17.0 
1e-06 0.5 178.2167 17.0 
4 1 5 0 0 0 0 0 0.017 
1e-06 0.5 178.14172 17.0 
1e-06 0.5 177.48534 17.0 
5 1 6 0 -0.14229 0 0 0 0.017 
1e-06 0.5 177.41385 17.0 
1e-06 0.5 175.6757 17.0 
6 1 7 0 -3.11457 0 0 0 0.017 
1e-06 0.5 175.60214 17.0 
1e-06 0.5 172.0304 17.0 
7 1 0 0 0 0 0 0 0.017 
1e-06 0.5 171.95155 17.0 
1e-06 0.5 170.3176 17.0 
7 0 0 0
1 1 2 0 13.91571 0 0 0 0.017 
1e-06 0.5 178.59413 17.0 
1e-06 0.5 178.56874 17.0 
2 1 3 0 0 0 0 0 0.017 
1e-06 0.5 178.55336 17.0 
1e-06 0.5 178.4932 17.0 
3 1 4 0 0 0 0 0 0.017 
1e-06 0.5 178.47273 17.0 
1e-06 0.5 178.2167 17.0 
4 1 5 0 0 0 0 0 0.017 
1e-06 0.5 178.14172 17.0 
1e-06 0.5 177.48534 17.0 
5 1 6 0 0 0 0 0 0.017 
1e-06 0.5 177.41385 17.0 
1e-06 0.5 175.6757 17.0 
6 1 7 0 -1.62 0 0 0 0.017 
1e-06 0.5 175.60214 17.0 
1e-06 0.5 172.0304 17.0 
7 1 0 0 0 0 0 0 0.017 
1e-06 0.5 171.95155 17.0 
1e-06 0.5 170.3176 17.0 
7 0 0 0
1 1 2 0 13.89857 0 0 0 0.017 
1e-06 0.5 178.59413 17.0 
1e-06 0.5 178.56874 17.0 
2 1 3 0 0 0 0 0 0.017 
1e-06 0.5 178.55336 17.0 
1e-06 0.5 178.4932 17.0 
3 1 4 0 0 0 0 0 0.017 
1e-06 0.5 178.47273 17.0 
1e-06 0.5 178.2167 17.0 
4 1 5 0 0 0 0 0 0.017 
1e-06 0.5 178.14172 17.0 
1e-06 0.5 177.48534 17.0 
5 1 6 0 0 0 0 0 0.017 
1e-06 0.5 177.41385 17.0 
1e-06 0.5 175.6757 17.0 
6 1 7 0 -0.99429 0 0 0 0.017 
1e-06 0.5 175.60214 17.0 
1e-06 0.5 172.0304 17.0 
7 1 0 0 0 0 0 0 0.017 
1e-06 0.5 171.95155 17.0 
1e-06 0.5 170.3176 17.0 
7 0 0 0
1 1 2 0 13.82286 0 0 0 0.017 
1e-06 0.5 178.59413 17.0 
1e-06 0.5 178.56874 17.0 
2 1 3 0 0 0 0 0 0.017 
1e-06 0.5 178.55336 17.0 
1e-06 0.5 178.4932 17.0 
3 1 4 0 0 0 0 0 0.017 
1e-06 0.5 178.47273 17.0 
1e-06 0.5 178.2167 17.0 
4 1 5 0 0 0 0 0 0.017 
1e-06 0.5 178.14172 17.0 
1e-06 0.5 177.48534 17.0 
5 1 6 0 0 0 0 0 0.017 
1e-06 0.5 177.41385 17.0 
1e-06 0.5 175.6757 17.0 
6 1 7 0 -1.81714 0 0 0 0.017 
1e-06 0.5 175.60214 17.0 
1e-06 0.5 172.0304 17.0 
7 1 0 0 0 0 0 0 0.017 
1e-06 0.5 171.95155 17.0 
1e-06 0.5 170.3176 17.0 
7 0 0 0
1 1 2 0 13.79429 0 0 0 0.017 
1e-06 0.5 178.59413 17.0 
1e-06 0.5 178.56874 17.0 
2 1 3 0 0 0 0 0 0.017 
1e-06 0.5 178.55336 17.0 
1e-06 0.5 178.4932 17.0 
3 1 4 0 0 0 0 0 0.017 
1e-06 0.5 178.47273 17.0 
1e-06 0.5 178.2167 17.0 
4 1 5 0 0 0 0 0 0.017 
1e-06 0.5 178.14172 17.0 
1e-06 0.5 177.48534 17.0 
5 1 6 0 0 0 0 0 0.017 
1e-06 0.5 177.41385 17.0 
1e-06 0.5 175.6757 17.0 
6 1 7 0 -2.11571 0 0 0 0.017 
1e-06 0.5 175.60214 17.0 
1e-06 0.5 172.0304 17.0 
7 1 0 0 0 0 0 0 0.017 
1e-06 0.5 171.95155 17.0 
1e-06 0.5 170.3176 17.0 
7 0 0 0
1 1 2 0 13.73143 0 0 0 0.017 
1e-06 0.5 178.59413 17.0 
1e-06 0.5 178.56874 17.0 
2 1 3 0 0 0 0 0 0.017 
1e-06 0.5 178.55336 17.0 
1e-06 0.5 178.4932 17.0 
3 1 4 0 0 0 0 0 0.017 
1e-06 0.5 178.47273 17.0 
1e-06 0.5 178.2167 17.0 
4 1 5 0 0 0 0 0 0.017 
1e-06 0.5 178.14172 17.0 
1e-06 0.5 177.48534 17.0 
5 1 6 0 0 0 0 0 0.017 
1e-06 0.5 177.41385 17.0 
1e-06 0.5 175.6757 17.0 
6 1 7 0 -2.05 0 0 0 0.017 
1e-06 0.5 175.60214 17.0 
1e-06 0.5 172.0304 17.0 
7 1 0 0 0 0 0 0 0.017 
1e-06 0.5 171.95155 17.0 
1e-06 0.5 170.3176 17.0 
7 0 0 0
1 1 2 0 12.14571 0 0 0 0.017 
1e-06 0.5 178.59413 17.0 
1e-06 0.5 178.56874 17.0 
2 1 3 0 0 0 0 0 0.017 
1e-06 0.5 178.55336 17.0 
1e-06 0.5 178.4932 17.0 
3 1 4 0 0 0 0 0 0.017 
1e-06 0.5 178.47273 17.0 
1e-06 0.5 178.2167 17.0 
4 1 5 0 0 0 0 0 0.017 
1e-06 0.5 178.14172 17.0 
1e-06 0.5 177.48534 17.0 
5 1 6 0 0 0 0 0 0.017 
1e-06 0.5 177.41385 17.0 
1e-06 0.5 175.6757 17.0 
6 1 7 0 -2.05 0 0 0 0.017 
1e-06 0.5 175.60214 17.0 
1e-06 0.5 172.0304 17.0 
7 1 0 0 0 0 0 0 0.017 
1e-06 0.5 171.95155 17.0 
1e-06 0.5 170.3176 17.0 
7 0 0 0
1 1 2 0 10.62143 0 0 0 0.017 
1e-06 0.5 178.59413 17.0 
1e-06 0.5 178.56874 17.0 
2 1 3 0 0 0 0 0 0.017 
1e-06 0.5 178.55336 17.0 
1e-06 0.5 178.4932 17.0 
3 1 4 0 0 0 0 0 0.017 
1e-06 0.5 178.47273 17.0 
1e-06 0.5 178.2167 17.0 
4 1 5 0 0 0 0 0 0.017 
1e-06 0.5 178.14172 17.0 
1e-06 0.5 177.48534 17.0 
5 1 6 0 0 0 0 0 0.017 
1e-06 0.5 177.41385 17.0 
1e-06 0.5 175.6757 17.0 
6 1 7 0 -2.05 0 0 0 0.017 
1e-06 0.5 175.60214 17.0 
1e-06 0.5 172.0304 17.0 
7 1 0 0 0 0 0 0 0.017 
1e-06 0.5 171.95155 17.0 
1e-06 0.5 170.3176 17.0 
7 0 0 0
1 1 2 0 10.57857 0 0 0 0.017 
1e-06 0.5 178.59413 17.0 
1e-06 0.5 178.56874 17.0 
2 1 3 0 0 0 0 0 0.017 
1e-06 0.5 178.55336 17.0 
1e-06 0.5 178.4932 17.0 
3 1 4 0 0 0 0 0 0.017 
1e-06 0.5 178.47273 17.0 
1e-06 0.5 178.2167 17.0 
4 1 5 0 0 0 0 0 0.017 
1e-06 0.5 178.14172 17.0 
1e-06 0.5 177.48534 17.0 
5 1 6 0 0 0 0 0 0.017 
1e-06 0.5 177.41385 17.0 
1e-06 0.5 175.6757 17.0 
6 1 7 0 -2.05 0 0 0 0.017 
1e-06 0.5 175.60214 17.0 
1e-06 0.5 172.0304 17.0 
7 1 0 0 0 0 0 0 0.017 
1e-06 0.5 171.95155 17.0 
1e-06 0.5 170.3176 17.0 
7 0 0 0
1 1 2 0 10.57714 0 0 0 0.017 
1e-06 0.5 178.59413 17.0 
1e-06 0.5 178.56874 17.0 
2 1 3 0 0 0 0 0 0.017 
1e-06 0.5 178.55336 17.0 
1e-06 0.5 178.4932 17.0 
3 1 4 0 0 0 0 0 0.017 
1e-06 0.5 178.47273 17.0 
1e-06 0.5 178.2167 17.0 
4 1 5 0 0 0 0 0 0.017 
1e-06 0.5 178.14172 17.0 
1e-06 0.5 177.48534 17.0 
5 1 6 0 0 0 0 0 0.017 
1e-06 0.5 177.41385 17.0 
1e-06 0.5 175.6757 17.0 
6 1 7 0 -2.05 0 0 0 0.017 
1e-06 0.5 175.60214 17.0 
1e-06 0.5 172.0304 17.0 
7 1 0 0 0 0 0 0 0.017 
1e-06 0.5 171.95155 17.0 
1e-06 0.5 170.3176 17.0 
7 0 0 0
1 1 2 0 10.54 0 0 0 0.017 
1e-06 0.5 178.59413 17.0 
1e-06 0.5 178.56874 17.0 
2 1 3 0 0 0 0 0 0.017 
1e-06 0.5 178.55336 17.0 
1e-06 0.5 178.4932 17.0 
3 1 4 0 0 0 0 0 0.017 
1e-06 0.5 178.47273 17.0 
1e-06 0.5 178.2167 17.0 
4 1 5 0 0 0 0 0 0.017 
1e-06 0.5 178.14172 17.0 
1e-06 0.5 177.48534 17.0 
5 1 6 0 0 0 0 0 0.017 
1e-06 0.5 177.41385 17.0 
1e-06 0.5 175.6757 17.0 
6 1 7 0 -2.05 0 0 0 0.017 
1e-06 0.5 175.60214 17.0 
1e-06 0.5 172.0304 17.0 
7 1 0 0 0 0 0 0 0.017 
1e-06 0.5 171.95155 17.0 
1e-06 0.5 170.3176 17.0 
7 0 0 0
1 1 2 0 10.52714 0 0 0 0.017 
1e-06 0.5 178.59413 17.0 
1e-06 0.5 178.56874 17.0 
2 1 3 0 0 0 0 0 0.017 
1e-06 0.5 178.55336 17.0 
1e-06 0.5 178.4932 17.0 
3 1 4 0 0 0 0 0 0.017 
1e-06 0.5 178.47273 17.0 
1e-06 0.5 178.2167 17.0 
4 1 5 0 0 0 0 0 0.017 
1e-06 0.5 178.14172 17.0 
1e-06 0.5 177.48534 17.0 
5 1 6 0 0 0 0 0 0.017 
1e-06 0.5 177.41385 17.0 
1e-06 0.5 175.6757 17.0 
6 1 7 0 -2.05 0 0 0 0.017 
1e-06 0.5 175.60214 17.0 
1e-06 0.5 172.0304 17.0 
7 1 0 0 0 0 0 0 0.017 
1e-06 0.5 171.95155 17.0 
1e-06 0.5 170.3176 17.0 
7 0 0 0
1 1 2 0 10.58571 0 0 0 0.017 
1e-06 0.5 178.59413 17.0 
1e-06 0.5 178.56874 17.0 
2 1 3 0 0 0 0 0 0.017 
1e-06 0.5 178.55336 17.0 
1e-06 0.5 178.4932 17.0 
3 1 4 0 0 0 0 0 0.017 
1e-06 0.5 178.47273 17.0 
1e-06 0.5 178.2167 17.0 
4 1 5 0 0 0 0 0 0.017 
1e-06 0.5 178.14172 17.0 
1e-06 0.5 177.48534 17.0 
5 1 6 0 0 0 0 0 0.017 
1e-06 0.5 177.41385 17.0 
1e-06 0.5 175.6757 17.0 
6 1 7 0 -2.05 0 0 0 0.017 
1e-06 0.5 175.60214 17.0 
1e-06 0.5 172.0304 17.0 
7 1 0 0 0 0 0 0 0.017 
1e-06 0.5 171.95155 17.0 
1e-06 0.5 170.3176 17.0 
7 0 0 0
1 1 2 0 10.59857 0 0 0 0.017 