# SFR package for MODFLOW-2005 generated by Flopy 3.8.2
-328 7 0 0 1.00000000 0.00010000 50 54 1 0 
2 47 52 1 1 2.0 124.83793 0.00159 0.5 0.001
2 48 52 1 2 3.0 124.835266 0.00159 0.5 0.001
2 49 52 1 3 1.0 124.83247 0.00159 0.5 0.001
2 49 53 1 4 4.0 124.82951 0.00159 0.5 0.001
2 50 53 1 5 3.0 124.82445 0.00159 0.5 0.001
2 50 54 1 6 1.0 124.82164 0.00159 0.5 0.001
2 51 54 1 7 4.0 124.818275 0.00159 0.5 0.001
2 52 54 1 8 2.0 124.81376 0.00159 0.5 0.001
2 52 55 1 9 1.0 124.81095 0.00159 0.5 0.001
2 53 55 1 10 4.0 124.807045 0.00159 0.5 0.001
2 54 55 1 11 1.0 124.80308 0.00159 0.5 0.001
2 54 56 1 12 2.0 124.80027 0.00159 0.5 0.001
2 55 56 1 13 3.0 124.795815 0.00159 0.5 0.001
2 56 56 1 14 1.0 124.7924 0.00159 0.5 0.001
2 56 57 1 15 3.0 124.78959 0.00159 0.5 0.001
2 57 57 1 16 3.0 124.784584 0.00159 0.5 0.001
2 58 57 1 17 1.0 124.78171 0.00159 0.5 0.001
2 58 58 1 18 4.0 124.7789 0.00159 0.5 0.001
2 59 58 1 19 3.0 124.773834 0.00159 0.5 0.001
2 59 59 1 20 1.0 124.77103 0.00159 0.5 0.001
2 60 59 1 21 4.0 124.767746 0.00159 0.5 0.001
2 61 59 1 22 2.0 124.763145 0.00159 0.5 0.001
2 61 60 1 23 1.0 124.76034 0.00159 0.5 0.001
2 62 60 1 24 3.0 124.756516 0.00159 0.5 0.001
2 63 60 1 25 2.0 124.752464 0.00159 0.5 0.001
2 63 61 1 26 2.0 124.74966 0.00159 0.5 0.001
2 64 61 1 27 3.0 124.745285 0.00159 0.5 0.001
2 65 61 1 28 1.0 124.74178 0.00159 0.5 0.001
2 65 62 1 29 3.0 124.738976 0.00159 0.5 0.001
2 66 62 1 30 3.0 124.734055 0.00159 0.5 0.001
2 67 62 1 31 1.0 124.731094 0.00159 0.5 0.001
2 67 63 1 32 4.0 124.72829 0.00159 0.5 0.001
2 68 63 1 33 3.0 124.72322 0.00159 0.5 0.001
2 68 64 1 34 1.0 124.72041 0.00159 0.5 0.001
2 69 64 1 35 3.0 124.71721 0.00159 0.5 0.001
2 70 64 1 36 3.0 124.71253 0.00159 0.5 0.001
2 70 65 1 37 1.0 124.709724 0.00159 0.5 0.001
2 71 65 1 38 3.0 124.705986 0.00159 0.5 0.001
2 72 65 1 39 2.0 124.70185 0.00159 0.5 0.001
2 72 66 1 40 2.0 124.69904 0.00159 0.5 0.001
2 73 66 1 41 3.0 124.694756 0.00159 0.5 0.001
2 74 66 1 42 1.0 124.69117 0.00159 0.5 0.001
2 74 67 1 43 3.0 124.688354 0.00159 0.5 0.001
2 75 67 1 44 3.0 124.683525 0.00159 0.5 0.001
2 76 67 1 45 1.0 124.68048 0.00159 0.5 0.001
2 76 68 1 46 3.0 124.67767 0.00159 0.5 0.001
2 77 68 1 47 3.0 124.67261 0.00159 0.5 0.001
2 77 69 1 48 1.0 124.6698 0.00159 0.5 0.001
2 78 69 1 49 3.0 124.66668 0.00159 0.5 0.001
2 79 69 1 50 3.0 124.66192 0.00159 0.5 0.001
2 79 70 1 51 1.0 124.65911 0.00159 0.5 0.001
2 80 70 1 52 3.0 124.65545 0.00159 0.5 0.001
2 81 70 1 53 2.0 124.65124 0.00159 0.5 0.001
2 81 71 1 54 2.0 124.64843 0.00159 0.5 0.001
2 82 71 1 55 3.0 124.644226 0.00159 0.5 0.001
2 83 71 1 56 1.0 124.64055 0.00159 0.5 0.001
2 83 72 1 57 2.0 124.63774 0.00159 0.5 0.001
2 84 72 1 58 4.0 124.632996 0.00159 0.5 0.001
2 85 72 1 59 1.0 124.62987 0.00159 0.5 0.001
2 85 73 1 60 3.0 124.62706 0.00159 0.5 0.001
2 86 73 1 61 3.0 124.62199 0.00159 0.5 0.001
2 86 74 1 62 1.0 124.61919 0.00159 0.5 0.001
2 87 74 1 63 3.0 124.61615 0.00159 0.5 0.001
2 88 74 1 64 3.0 124.611305 0.00159 0.5 0.001
2 88 75 1 65 1.0 124.6085 0.00159 0.5 0.001
2 89 75 1 66 3.0 124.60492 0.00159 0.5 0.001
2 90 75 1 67 2.0 124.600624 0.00159 0.5 0.001
2 90 76 1 68 1.0 124.59782 0.00159 0.5 0.001
2 91 76 1 69 4.0 124.59369 0.00159 0.5 0.001
2 92 76 1 70 1.0 124.589935 0.00159 0.5 0.001
2 92 77 1 71 2.0 124.58713 0.00159 0.5 0.001
2 93 77 1 72 1.0 124.58514 0.00159 0.5 0.001
2 94 77 2 1 1.0 124.58464 9e-05 0.5 0.001
2 94 78 2 2 2.0 124.58448 9e-05 0.5 0.001
2 95 78 2 3 4.0 124.58419 9e-05 0.5 0.001
2 96 78 2 4 1.0 124.58402 9e-05 0.5 0.001
2 96 79 2 5 3.0 124.583855 9e-05 0.5 0.001
2 97 79 2 6 3.0 124.583565 9e-05 0.5 0.001
2 97 80 2 7 1.0 124.583405 9e-05 0.5 0.001
2 98 80 2 8 3.0 124.583206 9e-05 0.5 0.001
2 99 80 2 9 2.0 124.58295 9e-05 0.5 0.001
2 99 81 2 10 2.0 124.58279 9e-05 0.5 0.001
2 100 81 2 11 3.0 124.58255 9e-05 0.5 0.001
2 101 81 2 12 1.0 124.58233 9e-05 0.5 0.001
2 101 82 2 13 2.0 124.58216 9e-05 0.5 0.001
2 102 82 2 14 4.0 124.5819 9e-05 0.5 0.001
2 103 82 2 15 1.0 124.58171 9e-05 0.5 0.001
2 103 83 2 16 3.0 124.58154 9e-05 0.5 0.001
2 104 83 2 17 4.0 124.58125 9e-05 0.5 0.001
2 104 84 2 18 1.0 124.58109 9e-05 0.5 0.001
2 105 84 2 19 3.0 124.58092 9e-05 0.5 0.001
2 106 84 2 20 3.0 124.580635 9e-05 0.5 0.001
2 106 85 2 21 1.0 124.58047 9e-05 0.5 0.001
2 107 85 2 22 3.0 124.58026 9e-05 0.5 0.001
2 108 85 2 23 2.0 124.58002 9e-05 0.5 0.001
2 108 86 2 24 1.0 124.57985 9e-05 0.5 0.001
2 109 86 2 25 4.0 124.57961 9e-05 0.5 0.001
2 110 86 2 26 1.0 124.5794 9e-05 0.5 0.001
2 110 87 2 27 2.0 124.57923 9e-05 0.5 0.001
2 111 87 2 28 4.0 124.57896 9e-05 0.5 0.001
2 112 87 2 29 1.0 124.57877 9e-05 0.5 0.001
2 112 88 2 30 3.0 124.57861 9e-05 0.5 0.001
2 113 88 2 31 3.0 124.57832 9e-05 0.5 0.001
2 113 89 2 32 1.0 124.578156 9e-05 0.5 0.001
2 114 89 2 33 3.0 124.57797 9e-05 0.5 0.001
2 115 89 2 34 2.0 124.577705 9e-05 0.5 0.001
2 115 90 2 35 2.0 124.57754 9e-05 0.5 0.001
2 116 90 2 36 3.0 124.577324 9e-05 0.5 0.001
2 117 90 2 37 2.0 124.57708 9e-05 0.5 0.001
2 117 91 2 38 1.0 124.57692 9e-05 0.5 0.001
2 118 91 2 39 4.0 124.57667 9e-05 0.5 0.001
2 119 91 2 40 1.0 124.57646 9e-05 0.5 0.001
2 119 92 2 41 2.0 124.5763 9e-05 0.5 0.001
2 120 92 2 42 4.0 124.57601 9e-05 0.5 0.001
2 121 92 2 43 1.0 124.57584 9e-05 0.5 0.001
2 121 93 2 44 3.0 124.57568 9e-05 0.5 0.001
2 122 93 2 45 3.0 124.575386 9e-05 0.5 0.001
2 122 94 2 46 1.0 124.575226 9e-05 0.5 0.001
2 123 94 2 47 3.0 124.575035 9e-05 0.5 0.001
2 124 94 2 48 2.0 124.57477 9e-05 0.5 0.001
2 124 95 2 49 1.0 124.57461 9e-05 0.5 0.001
2 125 95 2 50 4.0 124.57438 9e-05 0.5 0.001
2 126 95 2 51 1.0 124.57415 9e-05 0.5 0.001
2 126 96 2 52 1.0 124.57404 9e-05 0.5 0.001
2 127 96 3 1 4.0 124.57343 0.00022 0.5 0.001
2 128 96 3 2 1.0 124.57295 0.00022 0.5 0.001
2 128 97 3 3 2.0 124.57258 0.00022 0.5 0.001
2 129 97 3 4 4.0 124.571945 0.00022 0.5 0.001
2 130 97 3 5 1.0 124.57153 0.00022 0.5 0.001
2 130 98 3 6 3.0 124.57116 0.00022 0.5 0.001
2 131 98 3 7 3.0 124.57048 0.00022 0.5 0.001
2 131 99 3 8 1.0 124.570114 0.00022 0.5 0.001
2 132 99 3 9 3.0 124.56972 0.00022 0.5 0.001
2 133 99 3 10 3.0 124.56906 0.00022 0.5 0.001
2 133 100 3 11 1.0 124.56869 0.00022 0.5 0.001
2 134 100 3 12 4.0 124.56823 0.00022 0.5 0.001
2 135 100 3 13 2.0 124.56764 0.00022 0.5 0.001
2 135 101 3 14 1.0 124.56727 0.00022 0.5 0.001
2 136 101 3 15 4.0 124.56674 0.00022 0.5 0.001
2 137 101 3 16 1.0 124.56622 0.00022 0.5 0.001
2 137 102 3 17 2.0 124.56585 0.00022 0.5 0.001
2 138 102 3 18 3.0 124.565254 0.00022 0.5 0.001
2 139 102 3 19 1.0 124.564804 0.00022 0.5 0.001
2 139 103 3 20 3.0 124.56443 0.00022 0.5 0.001
2 140 103 3 21 3.0 124.56377 0.00022 0.5 0.001
2 141 103 3 22 1.0 124.563385 0.00022 0.5 0.001
2 141 104 3 23 4.0 124.56301 0.00022 0.5 0.001
2 142 104 3 24 3.0 124.56233 0.00022 0.5 0.001
2 142 105 3 25 1.0 124.56196 0.00022 0.5 0.001
2 143 105 3 26 4.0 124.56154 0.00022 0.5 0.001
2 144 105 3 27 2.0 124.56091 0.00022 0.5 0.001
2 144 106 3 28 1.0 124.56054 0.00022 0.5 0.001
2 145 106 3 29 3.0 124.56005 0.00022 0.5 0.001
2 146 106 3 30 2.0 124.559494 0.00022 0.5 0.001
2 146 107 3 31 2.0 124.55912 0.00022 0.5 0.001
2 147 107 3 32 3.0 124.55856 0.00022 0.5 0.001
2 148 107 3 33 1.0 124.558075 0.00022 0.5 0.001
2 148 108 3 34 3.0 124.5577 0.00022 0.5 0.001
2 149 108 3 35 3.0 124.557076 0.00022 0.5 0.001
2 150 108 3 36 1.0 124.556656 0.00022 0.5 0.001
2 150 109 3 37 3.0 124.55628 0.00022 0.5 0.001
2 151 109 3 38 3.0 124.5556 0.00022 0.5 0.001
2 151 110 3 39 1.0 124.55523 0.00022 0.5 0.001
2 152 110 3 40 3.0 124.55485 0.00022 0.5 0.001
2 153 110 3 41 3.0 124.554184 0.00022 0.5 0.001
2 153 111 3 42 1.0 124.55381 0.00022 0.5 0.001
2 154 111 3 43 3.0 124.55336 0.00022 0.5 0.001
2 155 111 3 44 2.0 124.552765 0.00022 0.5 0.001
2 155 112 3 45 2.0 124.55239 0.00022 0.5 0.001
2 156 112 3 46 1.0 124.552124 0.00022 0.5 0.001
2 157 112 4 1 3.0 124.54178 0.00304 0.5 0.001
2 158 112 4 2 3.0 124.53266 0.00304 0.5 0.001
2 159 112 4 3 3.0 124.523544 0.00304 0.5 0.001
2 160 112 4 4 3.0 124.514435 0.00304 0.5 0.001
2 161 112 4 5 3.0 124.50532 0.00304 0.5 0.001
2 162 112 4 6 3.0 124.4962 0.00304 0.5 0.001
2 163 112 4 7 3.0 124.48709 0.00304 0.5 0.001
2 164 112 4 8 3.0 124.477974 0.00304 0.5 0.001
2 165 112 4 9 3.0 124.46886 0.00304 0.5 0.001
2 166 112 4 10 1.0 124.46415 0.00304 0.5 0.001
2 167 112 5 1 2.0 124.46147 0.00059 0.5 0.001
2 167 113 5 2 1.0 124.46049 0.00059 0.5 0.001
2 168 113 5 3 3.0 124.45907 0.00059 0.5 0.001
2 169 113 5 4 3.0 124.45746 0.00059 0.5 0.001
2 169 114 5 5 1.0 124.456474 0.00059 0.5 0.001
2 170 114 5 6 3.0 124.455124 0.00059 0.5 0.001
2 171 114 5 7 3.0 124.453445 0.00059 0.5 0.001
2 171 115 5 8 1.0 124.45245 0.00059 0.5 0.001
2 172 115 5 9 4.0 124.45118 0.00059 0.5 0.001
2 173 115 5 10 2.0 124.449425 0.00059 0.5 0.001
2 173 116 5 11 1.0 124.44844 0.00059 0.5 0.001
2 174 116 5 12 3.0 124.447235 0.00059 0.5 0.001
2 175 116 5 13 3.0 124.44541 0.00059 0.5 0.001
2 175 117 5 14 1.0 124.44442 0.00059 0.5 0.001
2 176 117 5 15 3.0 124.44329 0.00059 0.5 0.001
2 177 117 5 16 3.0 124.44139 0.00059 0.5 0.001
2 177 118 5 17 1.0 124.44041 0.00059 0.5 0.001
2 178 118 5 18 4.0 124.43935 0.00059 0.5 0.001
2 179 118 5 19 3.0 124.43738 0.00059 0.5 0.001
2 180 118 5 20 1.0 124.436386 0.00059 0.5 0.001
2 180 119 5 21 3.0 124.4354 0.00059 0.5 0.001
2 181 119 5 22 4.0 124.43343 0.00059 0.5 0.001
2 182 119 5 23 1.0 124.43237 0.00059 0.5 0.001
2 182 120 5 24 3.0 124.43139 0.00059 0.5 0.001
2 183 120 5 25 3.0 124.42949 0.00059 0.5 0.001
2 184 120 5 26 1.0 124.42835 0.00059 0.5 0.001
2 184 121 5 27 3.0 124.42737 0.00059 0.5 0.001
2 185 121 5 28 3.0 124.425545 0.00059 0.5 0.001
2 186 121 5 29 1.0 124.42434 0.00059 0.5 0.001
2 186 122 5 30 2.0 124.423355 0.00059 0.5 0.001
2 187 122 5 31 4.0 124.4216 0.00059 0.5 0.001
2 188 122 5 32 1.0 124.42032 0.00059 0.5 0.001
2 188 123 5 33 2.0 124.419334 0.00059 0.5 0.001
2 189 123 5 34 3.0 124.417656 0.00059 0.5 0.001
2 190 123 5 35 2.0 124.416306 0.00059 0.5 0.001
2 190 124 5 36 2.0 124.41532 0.00059 0.5 0.001
2 191 124 5 37 3.0 124.41371 0.00059 0.5 0.001
2 192 124 5 38 2.0 124.412285 0.00059 0.5 0.001
2 192 125 5 39 1.0 124.4113 0.00059 0.5 0.001
2 193 125 5 40 4.0 124.40977 0.00059 0.5 0.001
2 194 125 5 41 1.0 124.40827 0.00059 0.5 0.001
2 194 126 5 42 2.0 124.40729 0.00059 0.5 0.001
2 195 126 5 43 3.0 124.40582 0.00059 0.5 0.001
2 196 126 5 44 2.0 124.40425 0.00059 0.5 0.001
2 196 127 5 45 2.0 124.40327 0.00059 0.5 0.001
2 197 127 5 46 3.0 124.40188 0.00059 0.5 0.001
2 198 127 5 47 2.0 124.40024 0.00059 0.5 0.001
2 198 128 5 48 1.0 124.399254 0.00059 0.5 0.001
2 199 128 5 49 4.0 124.397934 0.00059 0.5 0.001
2 200 128 5 50 2.0 124.39622 0.00059 0.5 0.001
2 200 129 5 51 1.0 124.39523 0.00059 0.5 0.001
2 201 129 5 52 3.0 124.39399 0.00059 0.5 0.001
2 202 129 5 53 3.0 124.392204 0.00059 0.5 0.001
2 202 130 5 54 1.0 124.39122 0.00059 0.5 0.001
2 203 130 5 55 3.0 124.390045 0.00059 0.5 0.001
2 204 130 5 56 3.0 124.38818 0.00059 0.5 0.001
2 204 131 5 57 1.0 124.3872 0.00059 0.5 0.001
2 205 131 5 58 4.0 124.3861 0.00059 0.5 0.001
2 206 131 5 59 1.0 124.385056 0.00059 0.5 0.001
2 206 132 6 1 1.0 124.38188 0.00088 0.5 0.001
2 207 132 6 2 3.0 124.3804 0.00088 0.5 0.001
2 208 132 6 3 4.0 124.37753 0.00088 0.5 0.001
2 209 132 6 4 1.0 124.375626 0.00088 0.5 0.001
2 209 133 6 5 2.0 124.37419 0.00088 0.5 0.001
2 210 133 6 6 3.0 124.37178 0.00088 0.5 0.001
2 211 133 6 7 2.0 124.36937 0.00088 0.5 0.001
2 211 134 6 8 1.0 124.367935 0.00088 0.5 0.001
2 212 134 6 9 4.0 124.366035 0.00088 0.5 0.001
2 213 134 6 10 3.0 124.36317 0.00088 0.5 0.001
2 214 134 6 11 1.0 124.36168 0.00088 0.5 0.001
2 214 135 6 12 3.0 124.36024 0.00088 0.5 0.001
2 215 135 6 13 3.0 124.357414 0.00088 0.5 0.001
2 216 135 6 14 2.0 124.35542 0.00088 0.5 0.001
2 216 136 6 15 2.0 124.35398 0.00088 0.5 0.001
2 217 136 6 16 3.0 124.35167 0.00088 0.5 0.001
2 218 136 6 17 2.0 124.34916 0.00088 0.5 0.001
2 218 137 6 18 1.0 124.347725 0.00088 0.5 0.001
2 219 137 6 19 3.0 124.345924 0.00088 0.5 0.001
2 220 137 6 20 4.0 124.34305 0.00088 0.5 0.001
2 221 137 6 21 1.0 124.34147 0.00088 0.5 0.001
2 221 138 6 22 3.0 124.340034 0.00088 0.5 0.001
2 222 138 6 23 3.0 124.3373 0.00088 0.5 0.001
2 223 138 6 24 2.0 124.33521 0.00088 0.5 0.001
2 223 139 6 25 1.0 124.33377 0.00088 0.5 0.001
2 224 139 6 26 4.0 124.33155 0.00088 0.5 0.001
2 225 139 6 27 2.0 124.32896 0.00088 0.5 0.001
2 225 140 6 28 1.0 124.327515 0.00088 0.5 0.001
2 226 140 6 29 3.0 124.325806 0.00088 0.5 0.001
2 227 140 6 30 4.0 124.32293 0.00088 0.5 0.001
2 228 140 6 31 1.0 124.32126 0.00088 0.5 0.001
2 228 141 6 32 3.0 124.319824 0.00088 0.5 0.001
2 229 141 6 33 3.0 124.317184 0.00088 0.5 0.001
2 230 141 6 34 2.0 124.315 0.00088 0.5 0.001
2 230 142 6 35 1.0 124.31357 0.00088 0.5 0.001
2 231 142 6 36 4.0 124.31144 0.00088 0.5 0.001
2 232 142 6 37 2.0 124.30875 0.00088 0.5 0.001
2 232 143 6 38 1.0 124.30731 0.00088 0.5 0.001
2 233 143 6 39 3.0 124.30569 0.00088 0.5 0.001
2 234 143 6 40 3.0 124.30312 0.00088 0.5 0.001
2 235 143 7 1 1.0 124.30034 0.00259 0.5 0.001
2 235 144 7 2 3.0 124.29611 0.00259 0.5 0.001
2 236 144 7 3 3.0 124.28816 0.00259 0.5 0.001
2 237 144 7 4 2.0 124.28202 0.00259 0.5 0.001
2 237 145 7 5 2.0 124.277794 0.00259 0.5 0.001
2 238 145 7 6 3.0 124.27125 0.00259 0.5 0.001
2 239 145 7 7 3.0 124.2637 0.00259 0.5 0.001
2 239 146 7 8 1.0 124.259476 0.00259 0.5 0.001
2 240 146 7 9 4.0 124.25434 0.00259 0.5 0.001
2 241 146 7 10 3.0 124.24589 0.00259 0.5 0.001
2 242 146 7 11 1.0 124.24116 0.00259 0.5 0.001
2 242 147 7 12 3.0 124.23693 0.00259 0.5 0.001
2 243 147 7 13 3.0 124.22897 0.00259 0.5 0.001
2 244 147 7 14 2.0 124.22284 0.00259 0.5 0.001
2 244 148 7 15 2.0 124.21861 0.00259 0.5 0.001
2 245 148 7 16 3.0 124.21207 0.00259 0.5 0.001
2 246 148 7 17 2.0 124.20452 0.00259 0.5 0.001
2 246 149 7 18 1.0 124.200294 0.00259 0.5 0.001
2 247 149 7 19 3.0 124.19515 0.00259 0.5 0.001
2 248 149 7 20 4.0 124.1867 0.00259 0.5 0.001
2 249 149 7 21 1.0 124.18198 0.00259 0.5 0.001
2 249 150 7 22 3.0 124.17775 0.00259 0.5 0.001
2 250 150 7 23 3.0 124.16979 0.00259 0.5 0.001
2 251 150 7 24 2.0 124.16366 0.00259 0.5 0.001
2 251 151 7 25 1.0 124.159424 0.00259 0.5 0.001
2 252 151 7 26 4.0 124.152885 0.00259 0.5 0.001
2 253 151 7 27 2.0 124.14533 0.00259 0.5 0.001
2 253 152 7 28 1.0 124.141106 0.00259 0.5 0.001
2 254 152 7 29 3.0 124.13597 0.00259 0.5 0.001
2 255 152 7 30 3.0 124.12752 0.00259 0.5 0.001
2 256 152 7 31 1.0 124.12279 0.00259 0.5 0.001
2 256 153 7 32 3.0 124.11856 0.00259 0.5 0.001
2 257 153 7 33 3.0 124.1106 0.00259 0.5 0.001
2 258 153 7 34 1.0 124.10447 0.00259 0.5 0.001
2 258 154 7 35 2.0 124.10024 0.00259 0.5 0.001
2 259 154 7 36 4.0 124.0937 0.00259 0.5 0.001
2 260 154 7 37 2.0 124.08615 0.00259 0.5 0.001
2 260 155 7 38 1.0 124.081924 0.00259 0.5 0.001
2 261 155 7 39 3.0 124.07679 0.00259 0.5 0.001
2 262 155 7 40 3.0 124.06834 0.00259 0.5 0.001
2 263 155 7 41 1.0 124.06361 0.00259 0.5 0.001
2 263 156 7 42 3.0 124.05938 0.00259 0.5 0.001
2 264 156 7 43 3.0 124.05142 0.00259 0.5 0.001
2 265 156 7 44 1.0 124.04529 0.00259 0.5 0.001
2 265 157 7 45 2.0 124.04106 0.00259 0.5 0.001
2 266 157 7 46 3.0 124.034515 0.00259 0.5 0.001
2 267 157 7 47 3.0 124.02697 0.00259 0.5 0.001
2 267 158 7 48 1.0 124.02274 0.00259 0.5 0.001
2 268 158 7 49 1.0 124.021416 0.00259 0.5 0.001
7 0 0 0
1 1 2 0 0 0 0 0 0.029 
3.0 
3.0 
2 1 3 0 0 0 0 0 0.029 
3.0 
3.0 
3 1 4 0 0 0 0 0 0.029 
3.0 
3.0 
4 1 5 0 0 0 0 0 0.029 
3.0 
3.0 
5 1 6 0 0 0 0 0 0.029 
3.0 
3.0 
6 1 7 0 0 0 0 0 0.029 
3.0 
3.0 
7 1 0 0 0 0 0 0 0.029 
3.0 
3.0 
