# SFR Package for MODFLOW-USGs
 174  7  0  0  1.000000e+00  1.000000e-04  50  54
  4553  1  1  106.000000
  4554  1  2  8.000000
  4677  1  3  99.000000
  4678  1  4  63.000000
  4679  2  1  99.000000
  4680  2  2  97.000000
  4803  2  3  4.000000
  4804  2  4  100.000000
  4805  2  5  106.000000
  4806  2  6  88.000000
  4929  2  7  32.000000
  4930  2  8  122.000000
  5053  2  9  9.000000
  5054  2  10  106.000000
  5055  3  1  21.000000
  5178  3  2  104.000000
  5179  3  3  63.000000
  5302  3  4  56.000000
  5303  3  5  117.000000
  5304  3  6  13.000000
  5427  3  7  45.000000
  5428  4  1  88.000000
  5551  4  2  23.000000
  5552  4  3  103.000000
  5553  4  4  99.000000
  5554  4  5  100.000000
  5555  4  6  99.000000
  5556  4  7  100.000000
  5557  4  8  99.000000
  5558  4  9  100.000000
  5559  4  10  102.000000
  5682  4  11  10.000000
  5683  4  12  130.000000
  5684  4  13  8.000000
  5807  5  1  112.000000
  5808  5  2  43.000000
  5931  5  3  76.000000
  5932  5  4  110.000000
  5933  5  5  32.000000
  6056  5  6  76.000000
  6057  5  7  107.000000
  6058  5  8  77.000000
  6181  5  9  31.000000
  6182  5  10  108.000000
  6183  5  11  108.000000
  6184  5  12  15.000000
  6307  5  13  94.000000
  6308  5  14  109.000000
  6309  5  15  44.000000
  6432  5  16  67.000000
  6433  5  17  112.000000
  6434  5  18  50.000000
  6557  5  19  57.000000
  6558  5  20  102.000000
  6559  5  21  103.000000
  6560  5  22  102.000000
  6561  5  23  59.000000
  6684  5  24  43.000000
  6685  5  25  103.000000
  6686  5  26  102.000000
  6687  5  27  103.000000
  6688  5  28  98.000000
  6811  5  29  4.000000
  6812  5  30  103.000000
  6813  5  31  103.000000
  6814  5  32  100.000000
  6815  5  33  93.000000
  6692  5  34  22.000000
  6693  5  35  123.000000
  6570  5  36  33.000000
  6571  5  37  30.000000
  6448  6  1  99.000000
  6325  6  2  92.000000
  6326  6  3  16.000000
  6203  6  4  109.000000
  6080  6  5  80.000000
  6081  6  6  96.000000
  5958  6  7  14.000000
  5959  6  8  115.000000
  5960  6  9  78.000000
  5837  6  10  35.000000
  5838  6  11  111.000000
  5839  6  12  72.000000
  5716  6  13  41.000000
  5717  6  14  113.000000
  5718  6  15  56.000000
  5595  6  16  57.000000
  5596  6  17  110.000000
  5597  6  18  79.000000
  5474  6  19  27.000000
  5475  6  20  104.000000
  5476  6  21  103.000000
  5477  6  22  100.000000
  5478  6  23  100.000000
  5479  6  24  100.000000
  5480  6  25  100.000000
  5481  6  26  58.000000
  5359  6  27  99.000000
  5360  6  28  100.000000
  5361  6  29  101.000000
  5362  6  30  47.000000
  5485  6  31  106.000000
  5608  6  32  64.000000
  5609  6  33  42.000000
  5732  6  34  104.000000
  5855  6  35  114.000000
  5978  6  36  8.000000
  5979  6  37  129.000000
  6102  6  38  15.000000
  6103  6  39  127.000000
  6226  6  40  14.000000
  6227  6  41  135.000000
  6228  6  42  5.000000
  6351  6  43  97.000000
  6352  6  44  102.000000
  6353  6  45  102.000000
  6354  6  46  102.000000
  6355  6  47  92.000000
  6478  6  48  10.000000
  6479  6  49  102.000000
  6480  6  50  102.000000
  6481  6  51  101.000000
  6482  6  52  102.000000
  6483  6  53  102.000000
  6484  6  54  34.000000
  6607  6  55  67.000000
  6608  6  56  102.000000
  6609  6  57  101.000000
  6610  6  58  102.000000
  6611  6  59  101.000000
  6612  6  60  66.000000
  6735  6  61  36.000000
  6736  6  62  102.000000
  6737  6  63  102.000000
  6738  6  64  101.000000
  6739  6  65  102.000000
  6740  6  66  89.000000
  6863  6  67  13.000000
  6864  6  68  102.000000
  6865  6  69  101.000000
  6866  6  70  48.000000
  6867  7  1  92.000000
  6868  7  2  102.000000
  6869  7  3  28.000000
  6992  7  4  72.000000
  6993  7  5  102.000000
  6994  7  6  100.000000
  6995  7  7  100.000000
  6996  7  8  101.000000
  6997  7  9  28.000000
  6874  7  10  76.000000
  6875  7  11  109.000000
  6876  7  12  79.000000
  6753  7  13  33.000000
  6754  7  14  123.000000
  6755  7  15  19.000000
  6632  7  16  114.000000
  6633  7  17  30.000000
  6510  7  18  125.000000
  6387  7  19  9.000000
  6388  7  20  113.000000
  6265  7  21  60.000000
  6266  7  22  69.000000
  6143  7  23  61.000000
  6144  7  24  102.000000
  6145  7  25  54.000000
  6268  7  26  52.000000
  6269  7  27  106.000000
  6270  7  28  109.000000
  6271  7  29  9.000000
  6394  7  30  122.000000
  6395  7  31  28.000000
  6518  7  32  119.000000
  6641  7  33  19.000000
  7  0  0  0
  1  1  2  0  1.185000  0.000000  0.000000  0.000000  0.017000
  0.000001  0.500000  178.594126  17.000000
  0.000001  0.500000  178.568748  17.000000
  2  1  3  0  0.000000  0.000000  0.000000  0.000000  0.017000
  0.000001  0.500000  178.553359  17.000000
  0.000001  0.500000  178.493187  17.000000
  3  1  4  0  -0.010000  0.000000  0.000000  0.000000  0.017000
  0.000001  0.500000  178.472727  17.000000
  0.000001  0.500000  178.216712  17.000000
  4  1  5  0  0.000000  0.000000  0.000000  0.000000  0.017000
  0.000001  0.500000  178.141725  17.000000
  0.000001  0.500000  177.485335  17.000000
  5  1  6  0  0.000000  0.000000  0.000000  0.000000  0.017000
  0.000001  0.500000  177.413844  17.000000
  0.000001  0.500000  175.675706  17.000000
  6  1  7  0  0.000000  0.000000  0.000000  0.000000  0.017000
  0.000001  0.500000  175.602149  17.000000
  0.000001  0.500000  172.030390  17.000000
  7  1  0  0  0.000000  0.000000  0.000000  0.000000  0.017000
  0.000001  0.500000  171.951551  17.000000
  0.000001  0.500000  170.317596  17.000000
  7  0  0  0
  1  1  2  0  1.185000  0.000000  0.000000  0.000000  0.017000
  0.000001  0.500000  178.594126  17.000000
  0.000001  0.500000  178.568748  17.000000
  2  1  3  0  0.000000  0.000000  0.000000  0.000000  0.017000
  0.000001  0.500000  178.553359  17.000000
  0.000001  0.500000  178.493187  17.000000
  3  1  4  0  0.000000  0.000000  0.000000  0.000000  0.017000
  0.000001  0.500000  178.472727  17.000000
  0.000001  0.500000  178.216712  17.000000
  4  1  5  0  0.000000  0.000000  0.000000  0.000000  0.017000
  0.000001  0.500000  178.141725  17.000000
  0.000001  0.500000  177.485335  17.000000
  5  1  6  0  0.000000  0.000000  0.000000  0.000000  0.017000
  0.000001  0.500000  177.413844  17.000000
  0.000001  0.500000  175.675706  17.000000
  6  1  7  0  0.000000  0.000000  0.000000  0.000000  0.017000
  0.000001  0.500000  175.602149  17.000000
  0.000001  0.500000  172.030390  17.000000
  7  1  0  0  0.000000  0.000000  0.000000  0.000000  0.017000
  0.000001  0.500000  171.951551  17.000000
  0.000001  0.500000  170.317596  17.000000
  7  0  0  0
  1  1  2  0  1.185000  0.000000  0.000000  0.000000  0.017000
  0.000001  0.500000  178.594126  17.000000
  0.000001  0.500000  178.568748  17.000000
  2  1  3  0  0.000000  0.000000  0.000000  0.000000  0.017000
  0.000001  0.500000  178.553359  17.000000
  0.000001  0.500000  178.493187  17.000000
  3  1  4  0  0.000000  0.000000  0.000000  0.000000  0.017000
  0.000001  0.500000  178.472727  17.000000
  0.000001  0.500000  178.216712  17.000000
  4  1  5  0  0.000000  0.000000  0.000000  0.000000  0.017000
  0.000001  0.500000  178.141725  17.000000
  0.000001  0.500000  177.485335  17.000000
  5  1  6  0  0.000000  0.000000  0.000000  0.000000  0.017000
  0.000001  0.500000  177.413844  17.000000
  0.000001  0.500000  175.675706  17.000000
  6  1  7  0  0.000000  0.000000  0.000000  0.000000  0.017000
  0.000001  0.500000  175.602149  17.000000
  0.000001  0.500000  172.030390  17.000000
  7  1  0  0  0.000000  0.000000  0.000000  0.000000  0.017000
  0.000001  0.500000  171.951551  17.000000
  0.000001  0.500000  170.317596  17.000000
  7  0  0  0
  1  1  2  0  1.185000  0.000000  0.000000  0.000000  0.017000
  0.000001  0.500000  178.594126  17.000000
  0.000001  0.500000  178.568748  17.000000
  2  1  3  0  0.000000  0.000000  0.000000  0.000000  0.017000
  0.000001  0.500000  178.553359  17.000000
  0.000001  0.500000  178.493187  17.000000
  3  1  4  0  0.000000  0.000000  0.000000  0.000000  0.017000
  0.000001  0.500000  178.472727  17.000000
  0.000001  0.500000  178.216712  17.000000
  4  1  5  0  0.000000  0.000000  0.000000  0.000000  0.017000
  0.000001  0.500000  178.141725  17.000000
  0.000001  0.500000  177.485335  17.000000
  5  1  6  0  0.000000  0.000000  0.000000  0.000000  0.017000
  0.000001  0.500000  177.413844  17.000000
  0.000001  0.500000  175.675706  17.000000
  6  1  7  0  0.000000  0.000000  0.000000  0.000000  0.017000
  0.000001  0.500000  175.602149  17.000000
  0.000001  0.500000  172.030390  17.000000
  7  1  0  0  0.000000  0.000000  0.000000  0.000000  0.017000
  0.000001  0.500000  171.951551  17.000000
  0.000001  0.500000  170.317596  17.000000
  7  0  0  0
  1  1  2  0  1.185000  0.000000  0.000000  0.000000  0.017000
  0.000001  0.500000  178.594126  17.000000
  0.000001  0.500000  178.568748  17.000000
  2  1  3  0  0.000000  0.000000  0.000000  0.000000  0.017000
  0.000001  0.500000  178.553359  17.000000
  0.000001  0.500000  178.493187  17.000000
  3  1  4  0  0.000000  0.000000  0.000000  0.000000  0.017000
  0.000001  0.500000  178.472727  17.000000
  0.000001  0.500000  178.216712  17.000000
  4  1  5  0  0.000000  0.000000  0.000000  0.000000  0.017000
  0.000001  0.500000  178.141725  17.000000
  0.000001  0.500000  177.485335  17.000000
  5  1  6  0  0.000000  0.000000  0.000000  0.000000  0.017000
  0.000001  0.500000  177.413844  17.000000
  0.000001  0.500000  175.675706  17.000000
  6  1  7  0  0.000000  0.000000  0.000000  0.000000  0.017000
  0.000001  0.500000  175.602149  17.000000
  0.000001  0.500000  172.030390  17.000000
  7  1  0  0  0.000000  0.000000  0.000000  0.000000  0.017000
  0.000001  0.500000  171.951551  17.000000
  0.000001  0.500000  170.317596  17.000000
  7  0  0  0
  1  1  2  0  1.185000  0.000000  0.000000  0.000000  0.017000
  0.000001  0.500000  178.594126  17.000000
  0.000001  0.500000  178.568748  17.000000
  2  1  3  0  0.000000  0.000000  0.000000  0.000000  0.017000
  0.000001  0.500000  178.553359  17.000000
  0.000001  0.500000  178.493187  17.000000
  3  1  4  0  0.000000  0.000000  0.000000  0.000000  0.017000
  0.000001  0.500000  178.472727  17.000000
  0.000001  0.500000  178.216712  17.000000
  4  1  5  0  0.000000  0.000000  0.000000  0.000000  0.017000
  0.000001  0.500000  178.141725  17.000000
  0.000001  0.500000  177.485335  17.000000
  5  1  6  0  0.000000  0.000000  0.000000  0.000000  0.017000
  0.000001  0.500000  177.413844  17.000000
  0.000001  0.500000  175.675706  17.000000
  6  1  7  0  0.000000  0.000000  0.000000  0.000000  0.017000
  0.000001  0.500000  175.602149  17.000000
  0.000001  0.500000  172.030390  17.000000
  7  1  0  0  0.000000  0.000000  0.000000  0.000000  0.017000
  0.000001  0.500000  171.951551  17.000000
  0.000001  0.500000  170.317596  17.000000
  7  0  0  0
  1  1  2  0  1.185000  0.000000  0.000000  0.000000  0.017000
  0.000001  0.500000  178.594126  17.000000
  0.000001  0.500000  178.568748  17.000000
  2  1  3  0  0.000000  0.000000  0.000000  0.000000  0.017000
  0.000001  0.500000  178.553359  17.000000
  0.000001  0.500000  178.493187  17.000000
  3  1  4  0  0.000000  0.000000  0.000000  0.000000  0.017000
  0.000001  0.500000  178.472727  17.000000
  0.000001  0.500000  178.216712  17.000000
  4  1  5  0  0.000000  0.000000  0.000000  0.000000  0.017000
  0.000001  0.500000  178.141725  17.000000
  0.000001  0.500000  177.485335  17.000000
  5  1  6  0  0.000000  0.000000  0.000000  0.000000  0.017000
  0.000001  0.500000  177.413844  17.000000
  0.000001  0.500000  175.675706  17.000000
  6  1  7  0  0.000000  0.000000  0.000000  0.000000  0.017000
  0.000001  0.500000  175.602149  17.000000
  0.000001  0.500000  172.030390  17.000000
  7  1  0  0  0.000000  0.000000  0.000000  0.000000  0.017000
  0.000001  0.500000  171.951551  17.000000
  0.000001  0.500000  170.317596  17.000000
  7  0  0  0
  1  1  2  0  1.185000  0.000000  0.000000  0.000000  0.017000
  0.000001  0.500000  178.594126  17.000000
  0.000001  0.500000  178.568748  17.000000
  2  1  3  0  0.000000  0.000000  0.000000  0.000000  0.017000
  0.000001  0.500000  178.553359  17.000000
  0.000001  0.500000  178.493187  17.000000
  3  1  4  0  0.000000  0.000000  0.000000  0.000000  0.017000
  0.000001  0.500000  178.472727  17.000000
  0.000001  0.500000  178.216712  17.000000
  4  1  5  0  0.000000  0.000000  0.000000  0.000000  0.017000
  0.000001  0.500000  178.141725  17.000000
  0.000001  0.500000  177.485335  17.000000
  5  1  6  0  0.000000  0.000000  0.000000  0.000000  0.017000
  0.000001  0.500000  177.413844  17.000000
  0.000001  0.500000  175.675706  17.000000
  6  1  7  0  0.000000  0.000000  0.000000  0.000000  0.017000
  0.000001  0.500000  175.602149  17.000000
  0.000001  0.500000  172.030390  17.000000
  7  1  0  0  0.000000  0.000000  0.000000  0.000000  0.017000
  0.000001  0.500000  171.951551  17.000000
  0.000001  0.500000  170.317596  17.000000
  7  0  0  0
  1  1  2  0  1.185000  0.000000  0.000000  0.000000  0.017000
  0.000001  0.500000  178.594126  17.000000
  0.000001  0.500000  178.568748  17.000000
  2  1  3  0  0.000000  0.000000  0.000000  0.000000  0.017000
  0.000001  0.500000  178.553359  17.000000
  0.000001  0.500000  178.493187  17.000000
  3  1  4  0  0.000000  0.000000  0.000000  0.000000  0.017000
  0.000001  0.500000  178.472727  17.000000
  0.000001  0.500000  178.216712  17.000000
  4  1  5  0  0.000000  0.000000  0.000000  0.000000  0.017000
  0.000001  0.500000  178.141725  17.000000
  0.000001  0.500000  177.485335  17.000000
  5  1  6  0  0.000000  0.000000  0.000000  0.000000  0.017000
  0.000001  0.500000  177.413844  17.000000
  0.000001  0.500000  175.675706  17.000000
  6  1  7  0  0.000000  0.000000  0.000000  0.000000  0.017000
  0.000001  0.500000  175.602149  17.000000
  0.000001  0.500000  172.030390  17.000000
  7  1  0  0  0.000000  0.000000  0.000000  0.000000  0.017000
  0.000001  0.500000  171.951551  17.000000
  0.000001  0.500000  170.317596  17.000000
  7  0  0  0
  1  1  2  0  1.185000  0.000000  0.000000  0.000000  0.017000
  0.000001  0.500000  178.594126  17.000000
  0.000001  0.500000  178.568748  17.000000
  2  1  3  0  0.000000  0.000000  0.000000  0.000000  0.017000
  0.000001  0.500000  178.553359  17.000000
  0.000001  0.500000  178.493187  17.000000
  3  1  4  0  0.000000  0.000000  0.000000  0.000000  0.017000
  0.000001  0.500000  178.472727  17.000000
  0.000001  0.500000  178.216712  17.000000
  4  1  5  0  0.000000  0.000000  0.000000  0.000000  0.017000
  0.000001  0.500000  178.141725  17.000000
  0.000001  0.500000  177.485335  17.000000
  5  1  6  0  0.000000  0.000000  0.000000  0.000000  0.017000
  0.000001  0.500000  177.413844  17.000000
  0.000001  0.500000  175.675706  17.000000
  6  1  7  0  0.000000  0.000000  0.000000  0.000000  0.017000
  0.000001  0.500000  175.602149  17.000000
  0.000001  0.500000  172.030390  17.000000
  7  1  0  0  0.000000  0.000000  0.000000  0.000000  0.017000
  0.000001  0.500000  171.951551  17.000000
  0.000001  0.500000  170.317596  17.000000
  7  0  0  0
  1  1  2  0  1.185000  0.000000  0.000000  0.000000  0.017000
  0.000001  0.500000  178.594126  17.000000
  0.000001  0.500000  178.568748  17.000000
  2  1  3  0  0.000000  0.000000  0.000000  0.000000  0.017000
  0.000001  0.500000  178.553359  17.000000
  0.000001  0.500000  178.493187  17.000000
  3  1  4  0  0.000000  0.000000  0.000000  0.000000  0.017000
  0.000001  0.500000  178.472727  17.000000
  0.000001  0.500000  178.216712  17.000000
  4  1  5  0  0.000000  0.000000  0.000000  0.000000  0.017000
  0.000001  0.500000  178.141725  17.000000
  0.000001  0.500000  177.485335  17.000000
  5  1  6  0  0.000000  0.000000  0.000000  0.000000  0.017000
  0.000001  0.500000  177.413844  17.000000
  0.000001  0.500000  175.675706  17.000000
  6  1  7  0  0.000000  0.000000  0.000000  0.000000  0.017000
  0.000001  0.500000  175.602149  17.000000
  0.000001  0.500000  172.030390  17.000000
  7  1  0  0  0.000000  0.000000  0.000000  0.000000  0.017000
  0.000001  0.500000  171.951551  17.000000
  0.000001  0.500000  170.317596  17.000000
  7  0  0  0
  1  1  2  0  1.185000  0.000000  0.000000  0.000000  0.017000
  0.000001  0.500000  178.594126  17.000000
  0.000001  0.500000  178.568748  17.000000
  2  1  3  0  0.000000  0.000000  0.000000  0.000000  0.017000
  0.000001  0.500000  178.553359  17.000000
  0.000001  0.500000  178.493187  17.000000
  3  1  4  0  0.000000  0.000000  0.000000  0.000000  0.017000
  0.000001  0.500000  178.472727  17.000000
  0.000001  0.500000  178.216712  17.000000
  4  1  5  0  0.000000  0.000000  0.000000  0.000000  0.017000
  0.000001  0.500000  178.141725  17.000000
  0.000001  0.500000  177.485335  17.000000
  5  1  6  0  0.000000  0.000000  0.000000  0.000000  0.017000
  0.000001  0.500000  177.413844  17.000000
  0.000001  0.500000  175.675706  17.000000
  6  1  7  0  0.000000  0.000000  0.000000  0.000000  0.017000
  0.000001  0.500000  175.602149  17.000000
  0.000001  0.500000  172.030390  17.000000
  7  1  0  0  0.000000  0.000000  0.000000  0.000000  0.017000
  0.000001  0.500000  171.951551  17.000000
  0.000001  0.500000  170.317596  17.000000
  7  0  0  0
  1  1  2  0  1.185000  0.000000  0.000000  0.000000  0.017000
  0.000001  0.500000  178.594126  17.000000
  0.000001  0.500000  178.568748  17.000000
  2  1  3  0  0.000000  0.000000  0.000000  0.000000  0.017000
  0.000001  0.500000  178.553359  17.000000
  0.000001  0.500000  178.493187  17.000000
  3  1  4  0  0.000000  0.000000  0.000000  0.000000  0.017000
  0.000001  0.500000  178.472727  17.000000
  0.000001  0.500000  178.216712  17.000000
  4  1  5  0  0.000000  0.000000  0.000000  0.000000  0.017000
  0.000001  0.500000  178.141725  17.000000
  0.000001  0.500000  177.485335  17.000000
  5  1  6  0  0.000000  0.000000  0.000000  0.000000  0.017000
  0.000001  0.500000  177.413844  17.000000
  0.000001  0.500000  175.675706  17.000000
  6  1  7  0  0.000000  0.000000  0.000000  0.000000  0.017000
  0.000001  0.500000  175.602149  17.000000
  0.000001  0.500000  172.030390  17.000000
  7  1  0  0  0.000000  0.000000  0.000000  0.000000  0.017000
  0.000001  0.500000  171.951551  17.000000
  0.000001  0.500000  170.317596  17.000000
  7  0  0  0
  1  1  2  0  1.185000  0.000000  0.000000  0.000000  0.017000
  0.000001  0.500000  178.594126  17.000000
  0.000001  0.500000  178.568748  17.000000
  2  1  3  0  0.000000  0.000000  0.000000  0.000000  0.017000
  0.000001  0.500000  178.553359  17.000000
  0.000001  0.500000  178.493187  17.000000
  3  1  4  0  0.000000  0.000000  0.000000  0.000000  0.017000
  0.000001  0.500000  178.472727  17.000000
  0.000001  0.500000  178.216712  17.000000
  4  1  5  0  0.000000  0.000000  0.000000  0.000000  0.017000
  0.000001  0.500000  178.141725  17.000000
  0.000001  0.500000  177.485335  17.000000
  5  1  6  0  0.000000  0.000000  0.000000  0.000000  0.017000
  0.000001  0.500000  177.413844  17.000000
  0.000001  0.500000  175.675706  17.000000
  6  1  7  0  0.000000  0.000000  0.000000  0.000000  0.017000
  0.000001  0.500000  175.602149  17.000000
  0.000001  0.500000  172.030390  17.000000
  7  1  0  0  0.000000  0.000000  0.000000  0.000000  0.017000
  0.000001  0.500000  171.951551  17.000000
  0.000001  0.500000  170.317596  17.000000
  7  0  0  0
  1  1  2  0  1.185000  0.000000  0.000000  0.000000  0.017000
  0.000001  0.500000  178.594126  17.000000
  0.000001  0.500000  178.568748  17.000000
  2  1  3  0  0.000000  0.000000  0.000000  0.000000  0.017000
  0.000001  0.500000  178.553359  17.000000
  0.000001  0.500000  178.493187  17.000000
  3  1  4  0  0.000000  0.000000  0.000000  0.000000  0.017000
  0.000001  0.500000  178.472727  17.000000
  0.000001  0.500000  178.216712  17.000000
  4  1  5  0  0.000000  0.000000  0.000000  0.000000  0.017000
  0.000001  0.500000  178.141725  17.000000
  0.000001  0.500000  177.485335  17.000000
  5  1  6  0  0.000000  0.000000  0.000000  0.000000  0.017000
  0.000001  0.500000  177.413844  17.000000
  0.000001  0.500000  175.675706  17.000000
  6  1  7  0  0.000000  0.000000  0.000000  0.000000  0.017000
  0.000001  0.500000  175.602149  17.000000
  0.000001  0.500000  172.030390  17.000000
  7  1  0  0  0.000000  0.000000  0.000000  0.000000  0.017000
  0.000001  0.500000  171.951551  17.000000
  0.000001  0.500000  170.317596  17.000000
  7  0  0  0
  1  1  2  0  1.185000  0.000000  0.000000  0.000000  0.017000
  0.000001  0.500000  178.594126  17.000000
  0.000001  0.500000  178.568748  17.000000
  2  1  3  0  0.000000  0.000000  0.000000  0.000000  0.017000
  0.000001  0.500000  178.553359  17.000000
  0.000001  0.500000  178.493187  17.000000
  3  1  4  0  0.000000  0.000000  0.000000  0.000000  0.017000
  0.000001  0.500000  178.472727  17.000000
  0.000001  0.500000  178.216712  17.000000
  4  1  5  0  0.000000  0.000000  0.000000  0.000000  0.017000
  0.000001  0.500000  178.141725  17.000000
  0.000001  0.500000  177.485335  17.000000
  5  1  6  0  0.000000  0.000000  0.000000  0.000000  0.017000
  0.000001  0.500000  177.413844  17.000000
  0.000001  0.500000  175.675706  17.000000
  6  1  7  0  0.000000  0.000000  0.000000  0.000000  0.017000
  0.000001  0.500000  175.602149  17.000000
  0.000001  0.500000  172.030390  17.000000
  7  1  0  0  0.000000  0.000000  0.000000  0.000000  0.017000
  0.000001  0.500000  171.951551  17.000000
  0.000001  0.500000  170.317596  17.000000
  7  0  0  0
  1  1  2  0  1.185000  0.000000  0.000000  0.000000  0.017000
  0.000001  0.500000  178.594126  17.000000
  0.000001  0.500000  178.568748  17.000000
  2  1  3  0  0.000000  0.000000  0.000000  0.000000  0.017000
  0.000001  0.500000  178.553359  17.000000
  0.000001  0.500000  178.493187  17.000000
  3  1  4  0  0.000000  0.000000  0.000000  0.000000  0.017000
  0.000001  0.500000  178.472727  17.000000
  0.000001  0.500000  178.216712  17.000000
  4  1  5  0  0.000000  0.000000  0.000000  0.000000  0.017000
  0.000001  0.500000  178.141725  17.000000
  0.000001  0.500000  177.485335  17.000000
  5  1  6  0  0.000000  0.000000  0.000000  0.000000  0.017000
  0.000001  0.500000  177.413844  17.000000
  0.000001  0.500000  175.675706  17.000000
  6  1  7  0  0.000000  0.000000  0.000000  0.000000  0.017000
  0.000001  0.500000  175.602149  17.000000
  0.000001  0.500000  172.030390  17.000000
  7  1  0  0  0.000000  0.000000  0.000000  0.000000  0.017000
  0.000001  0.500000  171.951551  17.000000
  0.000001  0.500000  170.317596  17.000000
  7  0  0  0
  1  1  2  0  1.185000  0.000000  0.000000  0.000000  0.017000
  0.000001  0.500000  178.594126  17.000000
  0.000001  0.500000  178.568748  17.000000
  2  1  3  0  0.000000  0.000000  0.000000  0.000000  0.017000
  0.000001  0.500000  178.553359  17.000000
  0.000001  0.500000  178.493187  17.000000
  3  1  4  0  0.000000  0.000000  0.000000  0.000000  0.017000
  0.000001  0.500000  178.472727  17.000000
  0.000001  0.500000  178.216712  17.000000
  4  1  5  0  0.000000  0.000000  0.000000  0.000000  0.017000
  0.000001  0.500000  178.141725  17.000000
  0.000001  0.500000  177.485335  17.000000
  5  1  6  0  0.000000  0.000000  0.000000  0.000000  0.017000
  0.000001  0.500000  177.413844  17.000000
  0.000001  0.500000  175.675706  17.000000
  6  1  7  0  0.000000  0.000000  0.000000  0.000000  0.017000
  0.000001  0.500000  175.602149  17.000000
  0.000001  0.500000  172.030390  17.000000
  7  1  0  0  0.000000  0.000000  0.000000  0.000000  0.017000
  0.000001  0.500000  171.951551  17.000000
  0.000001  0.500000  170.317596  17.000000
  7  0  0  0
  1  1  2  0  1.185000  0.000000  0.000000  0.000000  0.017000
  0.000001  0.500000  178.594126  17.000000
  0.000001  0.500000  178.568748  17.000000
  2  1  3  0  0.000000  0.000000  0.000000  0.000000  0.017000
  0.000001  0.500000  178.553359  17.000000
  0.000001  0.500000  178.493187  17.000000
  3  1  4  0  0.000000  0.000000  0.000000  0.000000  0.017000
  0.000001  0.500000  178.472727  17.000000
  0.000001  0.500000  178.216712  17.000000
  4  1  5  0  0.000000  0.000000  0.000000  0.000000  0.017000
  0.000001  0.500000  178.141725  17.000000
  0.000001  0.500000  177.485335  17.000000
  5  1  6  0  0.000000  0.000000  0.000000  0.000000  0.017000
  0.000001  0.500000  177.413844  17.000000
  0.000001  0.500000  175.675706  17.000000
  6  1  7  0  0.000000  0.000000  0.000000  0.000000  0.017000
  0.000001  0.500000  175.602149  17.000000
  0.000001  0.500000  172.030390  17.000000
  7  1  0  0  0.000000  0.000000  0.000000  0.000000  0.017000
  0.000001  0.500000  171.951551  17.000000
  0.000001  0.500000  170.317596  17.000000
  7  0  0  0
  1  1  2  0  1.185000  0.000000  0.000000  0.000000  0.017000
  0.000001  0.500000  178.594126  17.000000
  0.000001  0.500000  178.568748  17.000000
  2  1  3  0  0.000000  0.000000  0.000000  0.000000  0.017000
  0.000001  0.500000  178.553359  17.000000
  0.000001  0.500000  178.493187  17.000000
  3  1  4  0  0.000000  0.000000  0.000000  0.000000  0.017000
  0.000001  0.500000  178.472727  17.000000
  0.000001  0.500000  178.216712  17.000000
  4  1  5  0  0.000000  0.000000  0.000000  0.000000  0.017000
  0.000001  0.500000  178.141725  17.000000
  0.000001  0.500000  177.485335  17.000000
  5  1  6  0  0.000000  0.000000  0.000000  0.000000  0.017000
  0.000001  0.500000  177.413844  17.000000
  0.000001  0.500000  175.675706  17.000000
  6  1  7  0  0.000000  0.000000  0.000000  0.000000  0.017000
  0.000001  0.500000  175.602149  17.000000
  0.000001  0.500000  172.030390  17.000000
  7  1  0  0  0.000000  0.000000  0.000000  0.000000  0.017000
  0.000001  0.500000  171.951551  17.000000
  0.000001  0.500000  170.317596  17.000000
  7  0  0  0
  1  1  2  0  1.185000  0.000000  0.000000  0.000000  0.017000
  0.000001  0.500000  178.594126  17.000000
  0.000001  0.500000  178.568748  17.000000
  2  1  3  0  0.000000  0.000000  0.000000  0.000000  0.017000
  0.000001  0.500000  178.553359  17.000000
  0.000001  0.500000  178.493187  17.000000
  3  1  4  0  0.000000  0.000000  0.000000  0.000000  0.017000
  0.000001  0.500000  178.472727  17.000000
  0.000001  0.500000  178.216712  17.000000
  4  1  5  0  0.000000  0.000000  0.000000  0.000000  0.017000
  0.000001  0.500000  178.141725  17.000000
  0.000001  0.500000  177.485335  17.000000
  5  1  6  0  0.000000  0.000000  0.000000  0.000000  0.017000
  0.000001  0.500000  177.413844  17.000000
  0.000001  0.500000  175.675706  17.000000
  6  1  7  0  0.000000  0.000000  0.000000  0.000000  0.017000
  0.000001  0.500000  175.602149  17.000000
  0.000001  0.500000  172.030390  17.000000
  7  1  0  0  0.000000  0.000000  0.000000  0.000000  0.017000
  0.000001  0.500000  171.951551  17.000000
  0.000001  0.500000  170.317596  17.000000
  7  0  0  0
  1  1  2  0  1.185000  0.000000  0.000000  0.000000  0.017000
  0.000001  0.500000  178.594126  17.000000
  0.000001  0.500000  178.568748  17.000000
  2  1  3  0  0.000000  0.000000  0.000000  0.000000  0.017000
  0.000001  0.500000  178.553359  17.000000
  0.000001  0.500000  178.493187  17.000000
  3  1  4  0  0.000000  0.000000  0.000000  0.000000  0.017000
  0.000001  0.500000  178.472727  17.000000
  0.000001  0.500000  178.216712  17.000000
  4  1  5  0  0.000000  0.000000  0.000000  0.000000  0.017000
  0.000001  0.500000  178.141725  17.000000
  0.000001  0.500000  177.485335  17.000000
  5  1  6  0  0.000000  0.000000  0.000000  0.000000  0.017000
  0.000001  0.500000  177.413844  17.000000
  0.000001  0.500000  175.675706  17.000000
  6  1  7  0  0.000000  0.000000  0.000000  0.000000  0.017000
  0.000001  0.500000  175.602149  17.000000
  0.000001  0.500000  172.030390  17.000000
  7  1  0  0  0.000000  0.000000  0.000000  0.000000  0.017000
  0.000001  0.500000  171.951551  17.000000
  0.000001  0.500000  170.317596  17.000000
  7  0  0  0
  1  1  2  0  1.185000  0.000000  0.000000  0.000000  0.017000
  0.000001  0.500000  178.594126  17.000000
  0.000001  0.500000  178.568748  17.000000
  2  1  3  0  0.000000  0.000000  0.000000  0.000000  0.017000
  0.000001  0.500000  178.553359  17.000000
  0.000001  0.500000  178.493187  17.000000
  3  1  4  0  0.000000  0.000000  0.000000  0.000000  0.017000
  0.000001  0.500000  178.472727  17.000000
  0.000001  0.500000  178.216712  17.000000
  4  1  5  0  0.000000  0.000000  0.000000  0.000000  0.017000
  0.000001  0.500000  178.141725  17.000000
  0.000001  0.500000  177.485335  17.000000
  5  1  6  0  0.000000  0.000000  0.000000  0.000000  0.017000
  0.000001  0.500000  177.413844  17.000000
  0.000001  0.500000  175.675706  17.000000
  6  1  7  0  0.000000  0.000000  0.000000  0.000000  0.017000
  0.000001  0.500000  175.602149  17.000000
  0.000001  0.500000  172.030390  17.000000
  7  1  0  0  0.000000  0.000000  0.000000  0.000000  0.017000
  0.000001  0.500000  171.951551  17.000000
  0.000001  0.500000  170.317596  17.000000
  7  0  0  0
  1  1  2  0  1.185000  0.000000  0.000000  0.000000  0.017000
  0.000001  0.500000  178.594126  17.000000
  0.000001  0.500000  178.568748  17.000000
  2  1  3  0  0.000000  0.000000  0.000000  0.000000  0.017000
  0.000001  0.500000  178.553359  17.000000
  0.000001  0.500000  178.493187  17.000000
  3  1  4  0  0.000000  0.000000  0.000000  0.000000  0.017000
  0.000001  0.500000  178.472727  17.000000
  0.000001  0.500000  178.216712  17.000000
  4  1  5  0  0.000000  0.000000  0.000000  0.000000  0.017000
  0.000001  0.500000  178.141725  17.000000
  0.000001  0.500000  177.485335  17.000000
  5  1  6  0  0.000000  0.000000  0.000000  0.000000  0.017000
  0.000001  0.500000  177.413844  17.000000
  0.000001  0.500000  175.675706  17.000000
  6  1  7  0  0.000000  0.000000  0.000000  0.000000  0.017000
  0.000001  0.500000  175.602149  17.000000
  0.000001  0.500000  172.030390  17.000000