# SFR Package for MODFLOW-USGs
 -174  7  0  0  1.000000e+00  1.000000e-04  50  54 1 10 1 30
  4553  1  1  106.000000  178.594126  0.000630  0.500000  0.000001
  4554  1  2  8.000000  178.592659  0.000630  0.500000  0.000001
  4677  1  3  99.000000  178.582724  0.000630  0.500000  0.000001
  4678  1  4  63.000000  178.568748  0.000630  0.500000  0.000001
  4679  2  1  99.000000  178.553359  0.000630  0.500000  0.000001
  4680  2  2  97.000000  178.548897  0.000630  0.500000  0.000001
  4803  2  3  4.000000  178.543434  0.000630  0.500000  0.000001
  4804  2  4  100.000000  178.537512  0.000630  0.500000  0.000001
  4805  2  5  106.000000  178.527313  0.000630  0.500000  0.000001
  4806  2  6  88.000000  178.518107  0.000630  0.500000  0.000001
  4929  2  7  32.000000  178.512193  0.000630  0.500000  0.000001
  4930  2  8  122.000000  178.504409  0.000630  0.500000  0.000001
  5053  2  9  9.000000  178.498191  0.000630  0.500000  0.000001
  5054  2  10  106.000000  178.493187  0.000630  0.500000  0.000001
  5055  3  1  21.000000  178.472727  0.000630  0.500000  0.000001
  5178  3  2  104.000000  178.429178  0.000630  0.500000  0.000001
  5179  3  3  63.000000  178.375314  0.000630  0.500000  0.000001
  5302  3  4  56.000000  178.334500  0.000630  0.500000  0.000001
  5303  3  5  117.000000  178.270181  0.000630  0.500000  0.000001
  5304  3  6  13.000000  178.236248  0.000630  0.500000  0.000001
  5427  3  7  45.000000  178.216712  0.000630  0.500000  0.000001
  5428  4  1  88.000000  178.141725  0.000630  0.500000  0.000001
  5551  4  2  23.000000  178.134276  0.000630  0.500000  0.000001
  5552  4  3  103.000000  178.101984  0.000630  0.500000  0.000001
  5553  4  4  99.000000  178.033690  0.000630  0.500000  0.000001
  5554  4  5  100.000000  177.963829  0.000630  0.500000  0.000001
  5555  4  6  99.000000  177.876568  0.000630  0.500000  0.000001
  5556  4  7  100.000000  177.820389  0.000630  0.500000  0.000001
  5557  4  8  99.000000  177.750267  0.000630  0.500000  0.000001
  5558  4  9  100.000000  177.680477  0.000630  0.500000  0.000001
  5559  4  10  102.000000  177.616143  0.000630  0.500000  0.000001
  5682  4  11  10.000000  177.579542  0.000630  0.500000  0.000001
  5683  4  12  130.000000  177.531180  0.000630  0.500000  0.000001
  5684  4  13  8.000000  177.485335  0.000630  0.500000  0.000001
  5807  5  1  112.000000  177.413844  0.000630  0.500000  0.000001
  5808  5  2  43.000000  177.397013  0.000630  0.500000  0.000001
  5931  5  3  76.000000  177.357890  0.000630  0.500000  0.000001
  5932  5  4  110.000000  177.295842  0.000630  0.500000  0.000001
  5933  5  5  32.000000  177.254352  0.000630  0.500000  0.000001
  6056  5  6  76.000000  177.214123  0.000630  0.500000  0.000001
  6057  5  7  107.000000  177.155407  0.000630  0.500000  0.000001
  6058  5  8  77.000000  177.098556  0.000630  0.500000  0.000001
  6181  5  9  31.000000  177.068366  0.000630  0.500000  0.000001
  6182  5  10  108.000000  177.020303  0.000630  0.500000  0.000001
  6183  5  11  108.000000  176.948718  0.000630  0.500000  0.000001
  6184  5  12  15.000000  176.916690  0.000630  0.500000  0.000001
  6307  5  13  94.000000  176.875369  0.000630  0.500000  0.000001
  6308  5  14  109.000000  176.817391  0.000630  0.500000  0.000001
  6309  5  15  44.000000  176.768488  0.000630  0.500000  0.000001
  6432  5  16  67.000000  176.727905  0.000630  0.500000  0.000001
  6433  5  17  112.000000  176.674797  0.000630  0.500000  0.000001
  6434  5  18  50.000000  176.625002  0.000630  0.500000  0.000001
  6557  5  19  57.000000  176.589070  0.000630  0.500000  0.000001
  6558  5  20  102.000000  176.540469  0.000630  0.500000  0.000001
  6559  5  21  103.000000  176.475407  0.000630  0.500000  0.000001
  6560  5  22  102.000000  176.410344  0.000630  0.500000  0.000001
  6561  5  23  59.000000  176.358592  0.000630  0.500000  0.000001
  6684  5  24  43.000000  176.326571  0.000630  0.500000  0.000001
  6685  5  25  103.000000  176.280258  0.000630  0.500000  0.000001
  6686  5  26  102.000000  176.215229  0.000630  0.500000  0.000001
  6687  5  27  103.000000  176.150199  0.000630  0.500000  0.000001
  6688  5  28  98.000000  176.085469  0.000630  0.500000  0.000001
  6811  5  29  4.000000  176.053890  0.000630  0.500000  0.000001
  6812  5  30  103.000000  176.019750  0.000630  0.500000  0.000001
  6813  5  31  103.000000  175.946407  0.000630  0.500000  0.000001
  6814  5  32  100.000000  175.890083  0.000630  0.500000  0.000001
  6815  5  33  93.000000  175.834746  0.000630  0.500000  0.000001
  6692  5  34  22.000000  175.791087  0.000630  0.500000  0.000001
  6693  5  35  123.000000  175.747342  0.000630  0.500000  0.000001
  6570  5  36  33.000000  175.698678  0.000630  0.500000  0.000001
  6571  5  37  30.000000  175.675706  0.000630  0.500000  0.000001
  6448  6  1  99.000000  175.602149  0.000630  0.500000  0.000001
  6325  6  2  92.000000  175.566801  0.000630  0.500000  0.000001
  6326  6  3  16.000000  175.538111  0.000630  0.500000  0.000001
  6203  6  4  109.000000  175.492908  0.000630  0.500000  0.000001
  6080  6  5  80.000000  175.432908  0.000630  0.500000  0.000001
  6081  6  6  96.000000  175.374650  0.000630  0.500000  0.000001
  5958  6  7  14.000000  175.345862  0.000630  0.500000  0.000001
  5959  6  8  115.000000  175.299218  0.000630  0.500000  0.000001
  5960  6  9  78.000000  175.242783  0.000630  0.500000  0.000001
  5837  6  10  35.000000  175.206939  0.000630  0.500000  0.000001
  5838  6  11  111.000000  175.153396  0.000630  0.500000  0.000001
  5839  6  12  72.000000  175.101370  0.000630  0.500000  0.000001
  5716  6  13  41.000000  175.065315  0.000630  0.500000  0.000001
  5717  6  14  113.000000  175.017723  0.000630  0.500000  0.000001
  5718  6  15  56.000000  174.961625  0.000630  0.500000  0.000001
  5595  6  16  57.000000  174.928093  0.000630  0.500000  0.000001
  5596  6  17  110.000000  174.863786  0.000630  0.500000  0.000001
  5597  6  18  79.000000  174.811393  0.000630  0.500000  0.000001
  5474  6  19  27.000000  174.777315  0.000630  0.500000  0.000001
  5475  6  20  104.000000  174.734353  0.000630  0.500000  0.000001
  5476  6  21  103.000000  174.669256  0.000630  0.500000  0.000001
  5477  6  22  100.000000  174.610471  0.000630  0.500000  0.000001
  5478  6  23  100.000000  174.533126  0.000630  0.500000  0.000001
  5479  6  24  100.000000  174.472036  0.000630  0.500000  0.000001
  5480  6  25  100.000000  174.401846  0.000630  0.500000  0.000001
  5481  6  26  58.000000  174.361067  0.000630  0.500000  0.000001
  5359  6  27  99.000000  174.280593  0.000630  0.500000  0.000001
  5360  6  28  100.000000  174.219880  0.000630  0.500000  0.000001
  5361  6  29  101.000000  174.156549  0.000630  0.500000  0.000001
  5362  6  30  47.000000  174.104136  0.000630  0.500000  0.000001
  5485  6  31  106.000000  174.053575  0.000630  0.500000  0.000001
  5608  6  32  64.000000  174.003650  0.000630  0.500000  0.000001
  5609  6  33  42.000000  173.965995  0.000630  0.500000  0.000001
  5732  6  34  104.000000  173.922960  0.000630  0.500000  0.000001
  5855  6  35  114.000000  173.851868  0.000630  0.500000  0.000001
  5978  6  36  8.000000  173.813488  0.000630  0.500000  0.000001
  5979  6  37  129.000000  173.772018  0.000630  0.500000  0.000001
  6102  6  38  15.000000  173.723287  0.000630  0.500000  0.000001
  6103  6  39  127.000000  173.677765  0.000630  0.500000  0.000001
  6226  6  40  14.000000  173.632943  0.000630  0.500000  0.000001
  6227  6  41  135.000000  173.573206  0.000630  0.500000  0.000001
  6228  6  42  5.000000  173.540285  0.000630  0.500000  0.000001
  6351  6  43  97.000000  173.507675  0.000630  0.500000  0.000001
  6352  6  44  102.000000  173.443974  0.000630  0.500000  0.000001
  6353  6  45  102.000000  173.378754  0.000630  0.500000  0.000001
  6354  6  46  102.000000  173.313534  0.000630  0.500000  0.000001
  6355  6  47  92.000000  173.251627  0.000630  0.500000  0.000001
  6478  6  48  10.000000  173.219017  0.000630  0.500000  0.000001
  6479  6  49  102.000000  173.193774  0.000630  0.500000  0.000001
  6480  6  50  102.000000  173.118288  0.000630  0.500000  0.000001
  6481  6  51  101.000000  173.053346  0.000630  0.500000  0.000001
  6482  6  52  102.000000  172.988404  0.000630  0.500000  0.000001
  6483  6  53  102.000000  172.923462  0.000630  0.500000  0.000001
  6484  6  54  34.000000  172.879992  0.000630  0.500000  0.000001
  6607  6  55  67.000000  172.847521  0.000630  0.500000  0.000001
  6608  6  56  102.000000  172.793578  0.000630  0.500000  0.000001
  6609  6  57  101.000000  172.738251  0.000630  0.500000  0.000001
  6610  6  58  102.000000  172.663568  0.000630  0.500000  0.000001
  6611  6  59  101.000000  172.598538  0.000630  0.500000  0.000001
  6612  6  60  66.000000  172.544980  0.000630  0.500000  0.000001
  6735  6  61  36.000000  172.512466  0.000630  0.500000  0.000001
  6736  6  62  102.000000  172.468479  0.000630  0.500000  0.000001
  6737  6  63  102.000000  172.403450  0.000630  0.500000  0.000001
  6738  6  64  101.000000  172.349236  0.000630  0.500000  0.000001
  6739  6  65  102.000000  172.273369  0.000630  0.500000  0.000001
  6740  6  66  89.000000  172.212541  0.000630  0.500000  0.000001
  6863  6  67  13.000000  172.180019  0.000630  0.500000  0.000001
  6864  6  68  102.000000  172.143281  0.000630  0.500000  0.000001
  6865  6  69  101.000000  172.069785  0.000630  0.500000  0.000001
  6866  6  70  48.000000  172.030390  0.000630  0.500000  0.000001
  6867  7  1  92.000000  171.951551  0.000630  0.500000  0.000001
  6868  7  2  102.000000  171.916491  0.000630  0.500000  0.000001
  6869  7  3  28.000000  171.869931  0.000630  0.500000  0.000001
  6992  7  4  72.000000  171.836705  0.000630  0.500000  0.000001
  6993  7  5  102.000000  171.776890  0.000630  0.500000  0.000001
  6994  7  6  100.000000  171.707274  0.000630  0.500000  0.000001
  6995  7  7  100.000000  171.638131  0.000630  0.500000  0.000001
  6996  7  8  101.000000  171.558609  0.000630  0.500000  0.000001
  6997  7  9  28.000000  171.524444  0.000630  0.500000  0.000001
  6874  7  10  76.000000  171.487120  0.000630  0.500000  0.000001
  6875  7  11  109.000000  171.424538  0.000630  0.500000  0.000001
  6876  7  12  79.000000  171.354427  0.000630  0.500000  0.000001
  6753  7  13  33.000000  171.321133  0.000630  0.500000  0.000001
  6754  7  14  123.000000  171.269395  0.000630  0.500000  0.000001
  6755  7  15  19.000000  171.218396  0.000630  0.500000  0.000001
  6632  7  16  114.000000  171.165569  0.000630  0.500000  0.000001
  6633  7  17  30.000000  171.122478  0.000630  0.500000  0.000001
  6510  7  18  125.000000  171.061608  0.000630  0.500000  0.000001
  6387  7  19  9.000000  171.022471  0.000630  0.500000  0.000001
  6388  7  20  113.000000  170.975865  0.000630  0.500000  0.000001
  6265  7  21  60.000000  170.920159  0.000630  0.500000  0.000001
  6266  7  22  69.000000  170.875796  0.000630  0.500000  0.000001
  6143  7  23  61.000000  170.829651  0.000630  0.500000  0.000001
  6144  7  24  102.000000  170.777424  0.000630  0.500000  0.000001
  6145  7  25  54.000000  170.725405  0.000630  0.500000  0.000001
  6268  7  26  52.000000  170.686492  0.000630  0.500000  0.000001
  6269  7  27  106.000000  170.634903  0.000630  0.500000  0.000001
  6270  7  28  109.000000  170.558313  0.000630  0.500000  0.000001
  6271  7  29  9.000000  170.514405  0.000630  0.500000  0.000001
  6394  7  30  122.000000  170.469917  0.000630  0.500000  0.000001
  6395  7  31  28.000000  170.416686  0.000630  0.500000  0.000001
  6518  7  32  119.000000  170.364423  0.000630  0.500000  0.000001
  6641  7  33  19.000000  170.317596  0.000630  0.500000  0.000001
  7  0  0  0
  1  1  2  0  1.185000  0.000000  0.000000  0.000000  0.017000
  17.000000
  17.000000
  2  1  3  0  0.000000  0.000000  0.000000  0.000000  0.017000
  17.000000
  17.000000
  3  1  4  0  -0.010000  0.000000  0.000000  0.000000  0.017000
  17.000000
  17.000000
  4  1  5  0  0.000000  0.000000  0.000000  0.000000  0.017000
  17.000000
  17.000000
  5  1  6  0  0.000000  0.000000  0.000000  0.000000  0.017000
  17.000000
  17.000000
  6  1  7  0  0.000000  0.000000  0.000000  0.000000  0.017000
  17.000000
  17.000000
  7  1  0  0  0.000000  0.000000  0.000000  0.000000  0.017000
  17.000000
  17.000000
  7  0  0  0
  1  1  2  0  1.185000  0.000000  0.000000  0.000000  0.017000
  17.000000
  17.000000
  2  1  3  0  0.000000  0.000000  0.000000  0.000000  0.017000
  17.000000
  17.000000
  3  1  4  0  0.000000  0.000000  0.000000  0.000000  0.017000
  17.000000
  17.000000
  4  1  5  0  0.000000  0.000000  0.000000  0.000000  0.017000
  17.000000
  17.000000
  5  1  6  0  0.000000  0.000000  0.000000  0.000000  0.017000
  17.000000
  17.000000
  6  1  7  0  0.000000  0.000000  0.000000  0.000000  0.017000
  17.000000
  17.000000
  7  1  0  0  0.000000  0.000000  0.000000  0.000000  0.017000
  17.000000
  17.000000
  7  0  0  0
  1  1  2  0  1.185000  0.000000  0.000000  0.000000  0.017000
  17.000000
  17.000000
  2  1  3  0  0.000000  0.000000  0.000000  0.000000  0.017000
  17.000000
  17.000000
  3  1  4  0  0.000000  0.000000  0.000000  0.000000  0.017000
  17.000000
  17.000000
  4  1  5  0  0.000000  0.000000  0.000000  0.000000  0.017000
  17.000000
  17.000000
  5  1  6  0  0.000000  0.000000  0.000000  0.000000  0.017000
  17.000000
  17.000000
  6  1  7  0  0.000000  0.000000  0.000000  0.000000  0.017000
  17.000000
  17.000000
  7  1  0  0  0.000000  0.000000  0.000000  0.000000  0.017000
  17.000000
  17.000000
  7  0  0  0
  1  1  2  0  1.185000  0.000000  0.000000  0.000000  0.017000
  17.000000
  17.000000
  2  1  3  0  0.000000  0.000000  0.000000  0.000000  0.017000
  17.000000
  17.000000
  3  1  4  0  0.000000  0.000000  0.000000  0.000000  0.017000
  17.000000
  17.000000
  4  1  5  0  0.000000  0.000000  0.000000  0.000000  0.017000
  17.000000
  17.000000
  5  1  6  0  0.000000  0.000000  0.000000  0.000000  0.017000
  17.000000
  17.000000
  6  1  7  0  0.000000  0.000000  0.000000  0.000000  0.017000
  17.000000
  17.000000
  7  1  0  0  0.000000  0.000000  0.000000  0.000000  0.017000
  17.000000
  17.000000
  7  0  0  0
  1  1  2  0  1.185000  0.000000  0.000000  0.000000  0.017000
  17.000000
  17.000000
  2  1  3  0  0.000000  0.000000  0.000000  0.000000  0.017000
  17.000000
  17.000000
  3  1  4  0  0.000000  0.000000  0.000000  0.000000  0.017000
  17.000000
  17.000000
  4  1  5  0  0.000000  0.000000  0.000000  0.000000  0.017000
  17.000000
  17.000000
  5  1  6  0  0.000000  0.000000  0.000000  0.000000  0.017000
  17.000000
  17.000000
  6  1  7  0  0.000000  0.000000  0.000000  0.000000  0.017000
  17.000000
  17.000000
  7  1  0  0  0.000000  0.000000  0.000000  0.000000  0.017000
  17.000000
  17.000000
  7  0  0  0
  1  1  2  0  1.185000  0.000000  0.000000  0.000000  0.017000
  17.000000
  17.000000
  2  1  3  0  0.000000  0.000000  0.000000  0.000000  0.017000
  17.000000
  17.000000
  3  1  4  0  0.000000  0.000000  0.000000  0.000000  0.017000
  17.000000
  17.000000
  4  1  5  0  0.000000  0.000000  0.000000  0.000000  0.017000
  17.000000
  17.000000
  5  1  6  0  0.000000  0.000000  0.000000  0.000000  0.017000
  17.000000
  17.000000
  6  1  7  0  0.000000  0.000000  0.000000  0.000000  0.017000
  17.000000
  17.000000
  7  1  0  0  0.000000  0.000000  0.000000  0.000000  0.017000
  17.000000
  17.000000
  7  0  0  0
  1  1  2  0  1.185000  0.000000  0.000000  0.000000  0.017000
  17.000000
  17.000000
  2  1  3  0  0.000000  0.000000  0.000000  0.000000  0.017000
  17.000000
  17.000000
  3  1  4  0  0.000000  0.000000  0.000000  0.000000  0.017000
  17.000000
  17.000000
  4  1  5  0  0.000000  0.000000  0.000000  0.000000  0.017000
  17.000000
  17.000000
  5  1  6  0  0.000000  0.000000  0.000000  0.000000  0.017000
  17.000000
  17.000000
  6  1  7  0  0.000000  0.000000  0.000000  0.000000  0.017000
  17.000000
  17.000000
  7  1  0  0  0.000000  0.000000  0.000000  0.000000  0.017000
  17.000000
  17.000000
  7  0  0  0
  1  1  2  0  1.185000  0.000000  0.000000  0.000000  0.017000
  17.000000
  17.000000
  2  1  3  0  0.000000  0.000000  0.000000  0.000000  0.017000
  17.000000
  17.000000
  3  1  4  0  0.000000  0.000000  0.000000  0.000000  0.017000
  17.000000
  17.000000
  4  1  5  0  0.000000  0.000000  0.000000  0.000000  0.017000
  17.000000
  17.000000
  5  1  6  0  0.000000  0.000000  0.000000  0.000000  0.017000
  17.000000
  17.000000
  6  1  7  0  0.000000  0.000000  0.000000  0.000000  0.017000
  17.000000
  17.000000
  7  1  0  0  0.000000  0.000000  0.000000  0.000000  0.017000
  17.000000
  17.000000
  7  0  0  0
  1  1  2  0  1.185000  0.000000  0.000000  0.000000  0.017000
  17.000000
  17.000000
  2  1  3  0  0.000000  0.000000  0.000000  0.000000  0.017000
  17.000000
  17.000000
  3  1  4  0  0.000000  0.000000  0.000000  0.000000  0.017000
  17.000000
  17.000000
  4  1  5  0  0.000000  0.000000  0.000000  0.000000  0.017000
  17.000000
  17.000000
  5  1  6  0  0.000000  0.000000  0.000000  0.000000  0.017000
  17.000000
  17.000000
  6  1  7  0  0.000000  0.000000  0.000000  0.000000  0.017000
  17.000000
  17.000000
  7  1  0  0  0.000000  0.000000  0.000000  0.000000  0.017000
  17.000000
  17.000000
  7  0  0  0
  1  1  2  0  1.185000  0.000000  0.000000  0.000000  0.017000
  17.000000
  17.000000
  2  1  3  0  0.000000  0.000000  0.000000  0.000000  0.017000
  17.000000
  17.000000
  3  1  4  0  0.000000  0.000000  0.000000  0.000000  0.017000
  17.000000
  17.000000
  4  1  5  0  0.000000  0.000000  0.000000  0.000000  0.017000
  17.000000
  17.000000
  5  1  6  0  0.000000  0.000000  0.000000  0.000000  0.017000
  17.000000
  17.000000
  6  1  7  0  0.000000  0.000000  0.000000  0.000000  0.017000
  17.000000
  17.000000
  7  1  0  0  0.000000  0.000000  0.000000  0.000000  0.017000
  17.000000
  17.000000
  7  0  0  0
  1  1  2  0  1.185000  0.000000  0.000000  0.000000  0.017000
  17.000000
  17.000000
  2  1  3  0  0.000000  0.000000  0.000000  0.000000  0.017000
  17.000000
  17.000000
  3  1  4  0  0.000000  0.000000  0.000000  0.000000  0.017000
  17.000000
  17.000000
  4  1  5  0  0.000000  0.000000  0.000000  0.000000  0.017000
  17.000000
  17.000000
  5  1  6  0  0.000000  0.000000  0.000000  0.000000  0.017000
  17.000000
  17.000000
  6  1  7  0  0.000000  0.000000  0.000000  0.000000  0.017000
  17.000000
  17.000000
  7  1  0  0  0.000000  0.000000  0.000000  0.000000  0.017000
  17.000000
  17.000000
  7  0  0  0
  1  1  2  0  1.185000  0.000000  0.000000  0.000000  0.017000
  17.000000
  17.000000
  2  1  3  0  0.000000  0.000000  0.000000  0.000000  0.017000
  17.000000
  17.000000
  3  1  4  0  0.000000  0.000000  0.000000  0.000000  0.017000
  17.000000
  17.000000
  4  1  5  0  0.000000  0.000000  0.000000  0.000000  0.017000
  17.000000
  17.000000
  5  1  6  0  0.000000  0.000000  0.000000  0.000000  0.017000
  17.000000
  17.000000
  6  1  7  0  0.000000  0.000000  0.000000  0.000000  0.017000
  17.000000
  17.000000
  7  1  0  0  0.000000  0.000000  0.000000  0.000000  0.017000
  17.000000
  17.000000
  7  0  0  0
  1  1  2  0  1.185000  0.000000  0.000000  0.000000  0.017000
  17.000000
  17.000000
  2  1  3  0  0.000000  0.000000  0.000000  0.000000  0.017000
  17.000000
  17.000000
  3  1  4  0  0.000000  0.000000  0.000000  0.000000  0.017000
  17.000000
  17.000000
  4  1  5  0  0.000000  0.000000  0.000000  0.000000  0.017000
  17.000000
  17.000000
  5  1  6  0  0.000000  0.000000  0.000000  0.000000  0.017000
  17.000000
  17.000000
  6  1  7  0  0.000000  0.000000  0.000000  0.000000  0.017000
  17.000000
  17.000000
  7  1  0  0  0.000000  0.000000  0.000000  0.000000  0.017000
  17.000000
  17.000000
  7  0  0  0
  1  1  2  0  1.185000  0.000000  0.000000  0.000000  0.017000
  17.000000
  17.000000
  2  1  3  0  0.000000  0.000000  0.000000  0.000000  0.017000
  17.000000
  17.000000
  3  1  4  0  0.000000  0.000000  0.000000  0.000000  0.017000
  17.000000
  17.000000
  4  1  5  0  0.000000  0.000000  0.000000  0.000000  0.017000
  17.000000
  17.000000
  5  1  6  0  0.000000  0.000000  0.000000  0.000000  0.017000
  17.000000
  17.000000
  6  1  7  0  0.000000  0.000000  0.000000  0.000000  0.017000
  17.000000
  17.000000
  7  1  0  0  0.000000  0.000000  0.000000  0.000000  0.017000
  17.000000
  17.000000
  7  0  0  0
  1  1  2  0  1.185000  0.000000  0.000000  0.000000  0.017000
  17.000000
  17.000000
  2  1  3  0  0.000000  0.000000  0.000000  0.000000  0.017000
  17.000000
  17.000000
  3  1  4  0  0.000000  0.000000  0.000000  0.000000  0.017000
  17.000000
  17.000000
  4  1  5  0  0.000000  0.000000  0.000000  0.000000  0.017000
  17.000000
  17.000000
  5  1  6  0  0.000000  0.000000  0.000000  0.000000  0.017000
  17.000000
  17.000000
  6  1  7  0  0.000000  0.000000  0.000000  0.000000  0.017000
  17.000000
  17.000000
  7  1  0  0  0.000000  0.000000  0.000000  0.000000  0.017000
  17.000000
  17.000000
  7  0  0  0
  1  1  2  0  1.185000  0.000000  0.000000  0.000000  0.017000
  17.000000
  17.000000
  2  1  3  0  0.000000  0.000000  0.000000  0.000000  0.017000
  17.000000
  17.000000
  3  1  4  0  0.000000  0.000000  0.000000  0.000000  0.017000
  17.000000
  17.000000
  4  1  5  0  0.000000  0.000000  0.000000  0.000000  0.017000
  17.000000
  17.000000
  5  1  6  0  0.000000  0.000000  0.000000  0.000000  0.017000
  17.000000
  17.000000
  6  1  7  0  0.000000  0.000000  0.000000  0.000000  0.017000
  17.000000
  17.000000
  7  1  0  0  0.000000  0.000000  0.000000  0.000000  0.017000
  17.000000
  17.000000
  7  0  0  0
  1  1  2  0  1.185000  0.000000  0.000000  0.000000  0.017000
  17.000000
  17.000000
  2  1  3  0  0.000000  0.000000  0.000000  0.000000  0.017000
  17.000000
  17.000000
  3  1  4  0  0.000000  0.000000  0.000000  0.000000  0.017000
  17.000000
  17.000000
  4  1  5  0  0.000000  0.000000  0.000000  0.000000  0.017000
  17.000000
  17.000000
  5  1  6  0  0.000000  0.000000  0.000000  0.000000  0.017000
  17.000000
  17.000000
  6  1  7  0  0.000000  0.000000  0.000000  0.000000  0.017000
  17.000000
  17.000000
  7  1  0  0  0.000000  0.000000  0.000000  0.000000  0.017000
  17.000000
  17.000000
  7  0  0  0
  1  1  2  0  1.185000  0.000000  0.000000  0.000000  0.017000
  17.000000
  17.000000
  2  1  3  0  0.000000  0.000000  0.000000  0.000000  0.017000
  17.000000
  17.000000
  3  1  4  0  0.000000  0.000000  0.000000  0.000000  0.017000
  17.000000
  17.000000
  4  1  5  0  0.000000  0.000000  0.000000  0.000000  0.017000
  17.000000
  17.000000
  5  1  6  0  0.000000  0.000000  0.000000  0.000000  0.017000
  17.000000
  17.000000
  6  1  7  0  0.000000  0.000000  0.000000  0.000000  0.017000
  17.000000
  17.000000
  7  1  0  0  0.000000  0.000000  0.000000  0.000000  0.017000
  17.000000
  17.000000
  7  0  0  0
  1  1  2  0  1.185000  0.000000  0.000000  0.000000  0.017000
  17.000000
  17.000000
  2  1  3  0  0.000000  0.000000  0.000000  0.000000  0.017000
  17.000000
  17.000000
  3  1  4  0  0.000000  0.000000  0.000000  0.000000  0.017000
  17.000000
  17.000000
  4  1  5  0  0.000000  0.000000  0.000000  0.000000  0.017000
  17.000000
  17.000000
  5  1  6  0  0.000000  0.000000  0.000000  0.000000  0.017000
  17.000000
  17.000000
  6  1  7  0  0.000000  0.000000  0.000000  0.000000  0.017000
  17.000000
  17.000000
  7  1  0  0  0.000000  0.000000  0.000000  0.000000  0.017000
  17.000000
  17.000000
  7  0  0  0
  1  1  2  0  1.185000  0.000000  0.000000  0.000000  0.017000
  17.000000
  17.000000
  2  1  3  0  0.000000  0.000000  0.000000  0.000000  0.017000
  17.000000
  17.000000
  3  1  4  0  0.000000  0.000000  0.000000  0.000000  0.017000
  17.000000
  17.000000
  4  1  5  0  0.000000  0.000000  0.000000  0.000000  0.017000
  17.000000
  17.000000
  5  1  6  0  0.000000  0.000000  0.000000  0.000000  0.017000
  17.000000
  17.000000
  6  1  7  0  0.000000  0.000000  0.000000  0.000000  0.017000
  17.000000
  17.000000
  7  1  0  0  0.000000  0.000000  0.000000  0.000000  0.017000
  17.000000
  17.000000
  7  0  0  0
  1  1  2  0  1.185000  0.000000  0.000000  0.000000  0.017000
  17.000000
  17.000000
  2  1  3  0  0.000000  0.000000  0.000000  0.000000  0.017000
  17.000000
  17.000000
  3  1  4  0  0.000000  0.000000  0.000000  0.000000  0.017000
  17.000000
  17.000000
  4  1  5  0  0.000000  0.000000  0.000000  0.000000  0.017000
  17.000000
  17.000000
  5  1  6  0  0.000000  0.000000  0.000000  0.000000  0.017000
  17.000000
  17.000000
  6  1  7  0  0.000000  0.000000  0.000000  0.000000  0.017000
  17.000000
  17.000000
  7  1  0  0  0.000000  0.000000  0.000000  0.000000  0.017000
  17.000000
  17.000000
  7  0  0  0
  1  1  2  0  1.185000  0.000000  0.000000  0.000000  0.017000
  17.000000
  17.000000
  2  1  3  0  0.000000  0.000000  0.000000  0.000000  0.017000
  17.000000
  17.000000
  3  1  4  0  0.000000  0.000000  0.000000  0.000000  0.017000
  17.000000
  17.000000
  4  1  5  0  0.000000  0.000000  0.000000  0.000000  0.017000
  17.000000
  17.000000
  5  1  6  0  0.000000  0.000000  0.000000  0.000000  0.017000
  17.000000
  17.000000
  6  1  7  0  0.000000  0.000000  0.000000  0.000000  0.017000
  17.000000
  17.000000
  7  1  0  0  0.000000  0.000000  0.000000  0.000000  0.017000
  17.000000
  17.000000
  7  0  0  0
  1  1  2  0  1.185000  0.000000  0.000000  0.000000  0.017000
  17.000000
  17.000000
  2  1  3  0  0.000000  0.000000  0.000000  0.000000  0.017000
  17.000000
  17.000000
  3  1  4  0  0.000000  0.000000  0.000000  0.000000  0.017000
  17.000000
  17.000000
  4  1  5  0  0.000000  0.000000  0.000000  0.000000  0.017000
  17.000000
  17.000000
  5  1  6  0  0.000000  0.000000  0.000000  0.000000  0.017000
  17.000000
  17.000000
  6  1  7  0  0.000000  0.000000  0.000000  0.000000  0.017000
  17.000000
  17.000000
  7  1  0  0  0.000000  0.000000  0.000000  0.000000  0.017000
  17.000000
  17.000000
  7  0  0  0
  1  1  2  0  1.185000  0.000000  0.000000  0.000000  0.017000
  17.000000
  17.000000
  2  1  3  0  0.000000  0.000000  0.000000  0.000000  0.017000
  17.000000
  17.000000
  3  1  4  0  0.000000  0.000000  0.000000  0.000000  0.017000
  17.000000
  17.000000
  4  1  5  0  0.000000  0.000000  0.000000  0.000000  0.017000
  17.000000
  17.000000
  5  1  6  0  0.000000  0.000000  0.000000  0.000000  0.017000
  17.000000
  17.000000
  6  1  7  0  0.000000  0.000000  0.000000  0.000000  0.017000
  17.000000
  17.000000
  7  1  0  0  0.000000  0.000000  0.000000  0.000000  0.017000
  17.000000
  17.000000
  7  0  0  0
  1  1  2  0  1.185000  0.000000  0.000000  0.000000  0.017000
  17.000000
  17.000000
  2  1  3  0  0.000000  0.000000  0.000000  0.000000  0.017000
  17.000000
  17.000000
  3  1  4  0  0.000000  0.000000  0.000000  0.000000  0.017000
  17.000000
  17.000000
  4  1  5  0  0.000000  0.000000  0.000000  0.000000  0.017000
  17.000000
  17.000000
  5  1  6  0  0.000000  0.000000  0.000000  0.000000  0.017000
  17.000000
  17.000000
  6  1  7  0  0.000000  0.000000  0.000000  0.000000  0.017000
  17.000000
  17.000000
  7  1  0  0  0.000000  0.000000  0.000000  0.000000  0.017000
  17.000000
  17.000000
  7  0  0  0
  1  1  2  0  1.185000  0.000000  0.000000  0.000000  0.017000
  17.000000
  17.000000
  2  1  3  0  0.000000  0.000000  0.000000  0.000000  0.017000
  17.000000
  17.000000
  3  1  4  0  0.000000  0.000000  0.000000  0.000000  0.017000
  17.000000
  17.000000
  4  1  5  0  0.000000  0.000000  0.000000  0.000000  0.017000
  17.000000
  17.000000
  5  1  6  0  0.000000  0.000000  0.000000  0.000000  0.017000
  17.000000
  17.000000
  6  1  7  0  0.000000  0.000000  0.000000  0.000000  0.017000
  17.000000
  17.000000
  7  1  0  0  0.000000  0.000000  0.000000  0.000000  0.017000
  17.000000
  17.000000
  7  0  0  0
  1  1  2  0  1.185000  0.000000  0.000000  0.000000  0.017000
  17.000000
  17.000000
  2  1  3  0  0.000000  0.000000  0.000000  0.000000  0.017000
  17.000000
  17.000000
  3  1  4  0  0.000000  0.000000  0.000000  0.000000  0.017000
  17.000000
  17.000000
  4  1  5  0  0.000000  0.000000  0.000000  0.000000  0.017000
  17.000000
  17.000000
  5  1  6  0  0.000000  0.000000  0.000000  0.000000  0.017000
  17.000000
  17.000000
  6  1  7  0  0.000000  0.000000  0.000000  0.000000  0.017000
  17.000000
  17.000000
  7  1  0  0  0.000000  0.000000  0.000000  0.000000  0.017000
  17.000000
  17.000000
  7  0  0  0
  1  1  2  0  1.185000  0.000000  0.000000  0.000000  0.017000
  17.000000
  17.000000
  2  1  3  0  0.000000  0.000000  0.000000  0.000000  0.017000
  17.000000
  17.000000
  3  1  4  0  0.000000  0.000000  0.000000  0.000000  0.017000
  17.000000
  17.000000
  4  1  5  0  0.000000  0.000000  0.000000  0.000000  0.017000
  17.000000
  17.000000
  5  1  6  0  0.000000  0.000000  0.000000  0.000000  0.017000
  17.000000
  17.000000
  6  1  7  0  0.000000  0.000000  0.000000  0.000000  0.017000
  17.000000
  17.000000
  7  1  0  0  0.000000  0.000000  0.000000  0.000000  0.017000
  17.000000
  17.000000
  7  0  0  0
  1  1  2  0  1.185000  0.000000  0.000000  0.000000  0.017000
  17.000000
  17.000000
  2  1  3  0  0.000000  0.000000  0.000000  0.000000  0.017000
  17.000000
  17.000000
  3  1  4  0  0.000000  0.000000  0.000000  0.000000  0.017000
  17.000000
  17.000000
  4  1  5  0  0.000000  0.000000  0.000000  0.000000  0.017000
  17.000000
  17.000000
  5  1  6  0  0.000000  0.000000  0.000000  0.000000  0.017000
  17.000000
  17.000000
  6  1  7  0  0.000000  0.000000  0.000000  0.000000  0.017000
  17.000000
  17.000000
  7  1  0  0  0.000000  0.000000  0.000000  0.000000  0.017000
  17.000000
  17.000000
  7  0  0  0
  1  1  2  0  1.185000  0.000000  0.000000  0.000000  0.017000
  17.000000
  17.000000
  2  1  3  0  0.000000  0.000000  0.000000  0.000000  0.017000
  17.000000
  17.000000