# MODFLOW2000 Drain Package
PARAMETER  0  0
       148        50
       148         0                      Stress Period 1
         1       242       221   123.057 1.350e-02       500  
         1       232       233   125.176 1.350e-02       501  
         1       239       235   123.995 1.350e-02       502  
         1       254       245   120.955 1.350e-02       503  
         1       320       214   115.393 1.350e-02       504  
         1       331       209   114.616 1.350e-02       505  
         1       310       192   117.214 1.350e-02       506  
         1       296       177   120.299 1.350e-02       507  
         1       297       181   119.428 1.350e-02       508  
         1       290       182   120.053 1.350e-02       509  
         1       281       172   122.187 1.350e-02       510  
         1       198       126   135.515 1.350e-02       511  
         1       202       127   134.872 1.350e-02       512  
         1       209       130   133.452 1.350e-02       513  
         1       214       135   132.935 1.350e-02       514  
         1       207       142   133.190 1.350e-02       515  
         1       210       150   132.862 1.350e-02       516  
         1       215       147   131.197 1.350e-02       517  
         1       225       139   131.312 1.350e-02       518  
         1       227       126   131.377 1.350e-02       519  
         1       229       125   130.645 1.350e-02       520  
         1       219       121   132.753 1.350e-02       521  
         1       222       115   132.085 1.350e-02       522  
         1       211       111   133.971 1.350e-02       523  
         1       203       109   134.827 1.350e-02       524  
         1       272       252   118.902 1.350e-02       525  
         1       264       248   119.925 1.350e-02       526  
         1       279       258   117.805 1.350e-02       527  
         1       275       263   118.047 1.350e-02       528  
         1       268       266   118.694 1.350e-02       529  
         1       221       162   129.260 1.350e-02       530  
         1       229       155   128.738 1.350e-02       531  
         1       224       154   130.201 1.350e-02       532  
         1       243       175   126.059 1.350e-02       534  
         1       260       171   123.636 1.350e-02       535  
         1       253       165   125.332 1.350e-02       536  
         1       252       154   126.284 1.350e-02       537  
         1       268       124   124.870 1.350e-02       538  
         1       286       149   122.401 1.350e-02       539  
         1       294       150   121.843 1.350e-02       540  
         1       288       153   121.845 1.350e-02       541  
         1       305       150   119.554 1.350e-02       542  
         1       266       146   125.334 1.350e-02       543  
         1       282       194   120.631 1.350e-02       544  
         1       291       198   119.292 1.350e-02       545  
         1       271       189   121.733 1.350e-02       546  
         1       272       200   121.401 1.350e-02       547  
         1       287       212   119.463 1.350e-02       548  
         1       269       227   120.278 1.350e-02       549  
         1       218       229   127.254 1.350e-02       550  
         1       189       262   129.009 1.350e-02       551  
         1       190       269   127.881 1.350e-02       552  
         1       184       272   129.469 1.350e-02       553  
         1       170       266   132.352 1.350e-02       554  
         1       168       263   130.838 1.350e-02       555  
         1       186       245   130.995 1.350e-02       556  
         1       190       234   130.526 1.350e-02       557  
         1       197       242   129.115 1.350e-02       558  
         1       202       268   126.855 1.350e-02       559  
         1       210       253   126.426 1.350e-02       560  
         1       216       251   125.719 1.350e-02       561  
         1       192       196   132.519 1.350e-02       562  
         1       203       184   131.634 1.350e-02       563  
         1       203       185   131.633 1.350e-02       564  
         1       204       187   131.959 1.350e-02       565  
         1       222       204   128.353 1.350e-02       566  
         1       300        98   121.779 1.350e-02       567  
         1       256       260   119.822 1.350e-02       568  
         1       265       274   119.166 1.350e-02       569  
         1       256       271   119.308 1.350e-02       570  
         1       244       258   121.506 1.350e-02       571  
         1       237       269   121.792 1.350e-02       572  
         1       236       261   122.457 1.350e-02       573  
         1       186       298   126.350 1.350e-02       574  
         1       189       286   127.609 1.350e-02       575  
         1       267       232   119.886 1.350e-02       576  
         1       286       110   122.486 1.350e-02       577  
         1       273       244   118.884 1.350e-02       578  
         1       283       244   118.275 1.350e-02       579  
         1       289       260   116.659 1.350e-02       580  
         1       294       279   113.852 1.350e-02       581  
         1       296       275   114.253 1.350e-02       582  
         1       303       275   113.980 1.350e-02       583  
         1       311       174   118.350 1.350e-02       585  
         1       294       169   120.269 1.350e-02       586  
         1       319       185   117.288 1.350e-02       587  
         1       307       208   116.814 1.350e-02       588  
         1       184       123   137.070 1.350e-02       589  
         1       232       120   130.438 1.350e-02       590  
         1       239       127   129.753 1.350e-02       591  
         1       195       102   137.492 1.350e-02       592  
         1       275       102   124.244 1.350e-02       602  
         1       201       217   132.291 1.350e-02       603  
         1       189       199   132.699 1.350e-02       604  
         1       150       211   138.391 1.350e-02       605  
         1       193       206   132.005 1.350e-02       606  
         1       203       208   130.181 1.350e-02       607  
         1       263       215   121.347 1.350e-02       609  
         1       272       178   122.080 1.350e-02       610  
         1       257       185   123.694 1.350e-02       611  
         1       250       179   124.723 1.350e-02       612  
         1       253       196   124.076 1.350e-02       613  
         1       264       178   123.081 1.350e-02       614  
         1       276       184   121.626 1.350e-02       615  
         1       276       177   121.415 1.350e-02       616  
         1       275       172   121.872 1.350e-02       617  
         1       140       246   137.389 1.350e-02       620  
         1       141       252   134.691 1.350e-02       621  
         1       131       251   137.033 1.350e-02       622  
         1       325       160   116.074 1.350e-02       623  
         1       235       229   126.384 1.350e-02       624  
         1       245       243   121.809 1.350e-02       625  
         1       231       247   124.312 1.350e-02       626  
         1       224       244   124.799 1.350e-02       628  
         1       245       248   121.916 1.350e-02       629  
         1       247       227   122.953 1.350e-02       630  
         1       248       221   122.340 1.350e-02       631  
         1       128       256   139.197 1.350e-02       632  
         1       191       227   131.023 1.350e-02       633  
         1       144       264   135.207 1.350e-02       634  
         1       139       262   136.516 1.350e-02       636  
         1       116       250   140.465 1.350e-02       637  
         1       114       252   140.088 1.350e-02       638  
         1       130       237   140.162 1.350e-02       639  
         1       130       220   140.552 1.350e-02       640  
         1       169       215   134.658 1.350e-02       641  
         1       154       290   131.545 1.350e-02       642  
         1       172       299   129.048 1.350e-02       643  
         1       194       150   134.855 1.350e-02       644  
         1       198       154   132.654 1.350e-02       645  
         1       186       191   133.440 1.350e-02       646  
         1       187       229   134.915 1.350e-02       647  
         1       183       235   131.660 1.350e-02       648  
         1       194       314   124.404 1.350e-02       649  
         1       218       140   132.485 1.350e-02       650  
         1       212       129   133.069 1.350e-02       651  
         1       232       138   129.815 1.350e-02       652  
         1       224       165   129.127 1.350e-02       653  
         1       304       221   116.951 1.350e-02       654  
         1       270       293   116.842 1.350e-02       655  
         1       304       210   117.155 1.350e-02       656  
         1       308       226   116.785 1.350e-02       657  
         1       206       214   128.511 1.350e-02       658  
         1       208       212   128.662 1.350e-02       618  
         1       213       216   128.196 1.350e-02       619  
         1       229       179   127.429 1.350e-02       659  
         1       241       165   125.907 1.350e-02       533  
         1       247       214   123.460 1.350e-02       608  
       148         0                      Stress Period 2
         1       242       221   123.057 1.350e-02       500  
         1       232       233   125.176 1.350e-02       501  
         1       239       235   123.995 1.350e-02       502  
         1       254       245   120.955 1.350e-02       503  
         1       320       214   115.393 1.350e-02       504  
         1       331       209   114.616 1.350e-02       505  
         1       310       192   117.214 1.350e-02       506  
         1       296       177   120.299 1.350e-02       507  
         1       297       181   119.428 1.350e-02       508  
         1       290       182   120.053 1.350e-02       509  
         1       281       172   122.187 1.350e-02       510  
         1       198       126   135.515 1.350e-02       511  
         1       202       127   134.872 1.350e-02       512  
         1       209       130   133.452 1.350e-02       513  
         1       214       135   132.935 1.350e-02       514  
         1       207       142   133.190 1.350e-02       515  
         1       210       150   132.862 1.350e-02       516  
         1       215       147   131.197 1.350e-02       517  
         1       225       139   131.312 1.350e-02       518  
         1       227       126   131.377 1.350e-02       519  
         1       229       125   130.645 1.350e-02       520  
         1       219       121   132.753 1.350e-02       521  
         1       222       115   132.085 1.350e-02       522  
         1       211       111   133.971 1.350e-02       523  
         1       203       109   134.827 1.350e-02       524  
         1       272       252   118.902 1.350e-02       525  
         1       264       248   119.925 1.350e-02       526  
         1       279       258   117.805 1.350e-02       527  
         1       275       263   118.047 1.350e-02       528  
         1       268       266   118.694 1.350e-02       529  
         1       221       162   129.260 1.350e-02       530  
         1       229       155   128.738 1.350e-02       531  
         1       224       154   130.201 1.350e-02       532  
         1       243       175   126.059 1.350e-02       534  
         1       260       171   123.636 1.350e-02       535  
         1       253       165   125.332 1.350e-02       536  
         1       252       154   126.284 1.350e-02       537  
         1       268       124   124.870 1.350e-02       538  
         1       286       149   122.401 1.350e-02       539  
         1       294       150   121.843 1.350e-02       540  
         1       288       153   121.845 1.350e-02       541  
         1       305       150   119.554 1.350e-02       542  
         1       266       146   125.334 1.350e-02       543  
         1       282       194   120.631 1.350e-02       544  
         1       291       198   119.292 1.350e-02       545  
         1       271       189   121.733 1.350e-02       546  
         1       272       200   121.401 1.350e-02       547  
         1       287       212   119.463 1.350e-02       548  
         1       269       227   120.278 1.350e-02       549  
         1       218       229   127.254 1.350e-02       550  
         1       189       262   129.009 1.350e-02       551  
         1       190       269   127.881 1.350e-02       552  
         1       184       272   129.469 1.350e-02       553  
         1       170       266   132.352 1.350e-02       554  
         1       168       263   130.838 1.350e-02       555  
         1       186       245   130.995 1.350e-02       556  
         1       190       234   130.526 1.350e-02       557  
         1       197       242   129.115 1.350e-02       558  
         1       202       268   126.855 1.350e-02       559  
         1       210       253   126.426 1.350e-02       560  
         1       216       251   125.719 1.350e-02       561  
         1       192       196   132.519 1.350e-02       562  
         1       203       184   131.634 1.350e-02       563  
         1       203       185   131.633 1.350e-02       564  
         1       204       187   131.959 1.350e-02       565  
         1       222       204   128.353 1.350e-02       566  
         1       300        98   121.779 1.350e-02       567  
         1       256       260   119.822 1.350e-02       568  
         1       265       274   119.166 1.350e-02       569  
         1       256       271   119.308 1.350e-02       570  
         1       244       258   121.506 1.350e-02       571  
         1       237       269   121.792 1.350e-02       572  
         1       236       261   122.457 1.350e-02       573  
         1       186       298   126.350 1.350e-02       574  
         1       189       286   127.609 1.350e-02       575  
         1       267       232   119.886 1.350e-02       576  
         1       286       110   122.486 1.350e-02       577  
         1       273       244   118.884 1.350e-02       578  
         1       283       244   118.275 1.350e-02       579  
         1       289       260   116.659 1.350e-02       580  
         1       294       279   113.852 1.350e-02       581  
         1       296       275   114.253 1.350e-02       582  
         1       303       275   113.980 1.350e-02       583  
         1       311       174   118.350 1.350e-02       585  
         1       294       169   120.269 1.350e-02       586  
         1       319       185   117.288 1.350e-02       587  
         1       307       208   116.814 1.350e-02       588  
         1       184       123   137.070 1.350e-02       589  
         1       232       120   130.438 1.350e-02       590  
         1       239       127   129.753 1.350e-02       591  
         1       195       102   137.492 1.350e-02       592  
         1       275       102   124.244 1.350e-02       602  
         1       201       217   132.291 1.350e-02       603  
         1       189       199   132.699 1.350e-02       604  
         1       150       211   138.391 1.350e-02       605  
         1       193       206   132.005 1.350e-02       606  
         1       203       208   130.181 1.350e-02       607  
         1       263       215   121.347 1.350e-02       609  
         1       272       178   122.080 1.350e-02       610  
         1       257       185   123.694 1.350e-02       611  
         1       250       179   124.723 1.350e-02       612  
         1       253       196   124.076 1.350e-02       613  
         1       264       178   123.081 1.350e-02       614  
         1       276       184   121.626 1.350e-02       615  
         1       276       177   121.415 1.350e-02       616  
         1       275       172   121.872 1.350e-02       617  
         1       140       246   137.389 1.350e-02       620  
         1       141       252   134.691 1.350e-02       621  
         1       131       251   137.033 1.350e-02       622  
         1       325       160   116.074 1.350e-02       623  
         1       235       229   126.384 1.350e-02       624  
         1       245       243   121.809 1.350e-02       625  
         1       231       247   124.312 1.350e-02       626  
         1       224       244   124.799 1.350e-02       628  
         1       245       248   121.916 1.350e-02       629  
         1       247       227   122.953 1.350e-02       630  
         1       248       221   122.340 1.350e-02       631  
         1       128       256   139.197 1.350e-02       632  
         1       191       227   131.023 1.350e-02       633  
         1       144       264   135.207 1.350e-02       634  
         1       139       262   136.516 1.350e-02       636  
         1       116       250   140.465 1.350e-02       637  
         1       114       252   140.088 1.350e-02       638  
         1       130       237   140.162 1.350e-02       639  
         1       130       220   140.552 1.350e-02       640  
         1       169       215   134.658 1.350e-02       641  
         1       154       290   131.545 1.350e-02       642  
         1       172       299   129.048 1.350e-02       643  
         1       194       150   134.855 1.350e-02       644  
         1       198       154   132.654 1.350e-02       645  
         1       186       191   133.440 1.350e-02       646  
         1       187       229   134.915 1.350e-02       647  
         1       183       235   131.660 1.350e-02       648  
         1       194       314   124.404 1.350e-02       649  
         1       218       140   132.485 1.350e-02       650  
         1       212       129   133.069 1.350e-02       651  
         1       232       138   129.815 1.350e-02       652  
         1       224       165   129.127 1.350e-02       653  
         1       304       221   116.951 1.350e-02       654  
         1       270       293   116.842 1.350e-02       655  
         1       304       210   117.155 1.350e-02       656  
         1       308       226   116.785 1.350e-02       657  
         1       206       214   128.511 1.350e-02       658  
         1       208       212   128.662 1.350e-02       618  
         1       213       216   128.196 1.350e-02       619  
         1       229       179   127.429 1.350e-02       659  
         1       241       165   125.907 1.350e-02       533  
         1       247       214   123.460 1.350e-02       608  
       148         0                      Stress Period 3
         1       242       221   123.057 1.350e-02       500  
         1       232       233   125.176 1.350e-02       501  
         1       239       235   123.995 1.350e-02       502  
         1       254       245   120.955 1.350e-02       503  
         1       320       214   115.393 1.350e-02       504  
         1       331       209   114.616 1.350e-02       505  
         1       310       192   117.214 1.350e-02       506  
         1       296       177   120.299 1.350e-02       507  
         1       297       181   119.428 1.350e-02       508  
         1       290       182   120.053 1.350e-02       509  
         1       281       172   122.187 1.350e-02       510  
         1       198       126   135.515 1.350e-02       511  
         1       202       127   134.872 1.350e-02       512  
         1       209       130   133.452 1.350e-02       513  
         1       214       135   132.935 1.350e-02       514  
         1       207       142   133.190 1.350e-02       515  
         1       210       150   132.862 1.350e-02       516  
         1       215       147   131.197 1.350e-02       517  
         1       225       139   131.312 1.350e-02       518  
         1       227       126   131.377 1.350e-02       519  
         1       229       125   130.645 1.350e-02       520  
         1       219       121   132.753 1.350e-02       521  
         1       222       115   132.085 1.350e-02       522  
         1       211       111   133.971 1.350e-02       523  
         1       203       109   134.827 1.350e-02       524  
         1       272       252   118.902 1.350e-02       525  
         1       264       248   119.925 1.350e-02       526  
         1       279       258   117.805 1.350e-02       527  
         1       275       263   118.047 1.350e-02       528  
         1       268       266   118.694 1.350e-02       529  
         1       221       162   129.260 1.350e-02       530  
         1       229       155   128.738 1.350e-02       531  
         1       224       154   130.201 1.350e-02       532  
         1       243       175   126.059 1.350e-02       534  
         1       260       171   123.636 1.350e-02       535  
         1       253       165   125.332 1.350e-02       536  
         1       252       154   126.284 1.350e-02       537  
         1       268       124   124.870 1.350e-02       538  
         1       286       149   122.401 1.350e-02       539  
         1       294       150   121.843 1.350e-02       540  
         1       288       153   121.845 1.350e-02       541  
         1       305       150   119.554 1.350e-02       542  
         1       266       146   125.334 1.350e-02       543  
         1       282       194   120.631 1.350e-02       544  
         1       291       198   119.292 1.350e-02       545  
         1       271       189   121.733 1.350e-02       546  
         1       272       200   121.401 1.350e-02       547  
         1       287       212   119.463 1.350e-02       548  
         1       269       227   120.278 1.350e-02       549  
         1       218       229   127.254 1.350e-02       550  
         1       189       262   129.009 1.350e-02       551  
         1       190       269   127.881 1.350e-02       552  
         1       184       272   129.469 1.350e-02       553  
         1       170       266   132.352 1.350e-02       554  
         1       168       263   130.838 1.350e-02       555  
         1       186       245   130.995 1.350e-02       556  
         1       190       234   130.526 1.350e-02       557  
         1       197       242   129.115 1.350e-02       558  
         1       202       268   126.855 1.350e-02       559  
         1       210       253   126.426 1.350e-02       560  
         1       216       251   125.719 1.350e-02       561  
         1       192       196   132.519 1.350e-02       562  
         1       203       184   131.634 1.350e-02       563  
         1       203       185   131.633 1.350e-02       564  
         1       204       187   131.959 1.350e-02       565  
         1       222       204   128.353 1.350e-02       566  
         1       300        98   121.779 1.350e-02       567  
         1       256       260   119.822 1.350e-02       568  
         1       265       274   119.166 1.350e-02       569  
         1       256       271   119.308 1.350e-02       570  
         1       244       258   121.506 1.350e-02       571  
         1       237       269   121.792 1.350e-02       572  
         1       236       261   122.457 1.350e-02       573  
         1       186       298   126.350 1.350e-02       574  
         1       189       286   127.609 1.350e-02       575  
         1       267       232   119.886 1.350e-02       576  
         1       286       110   122.486 1.350e-02       577  
         1       273       244   118.884 1.350e-02       578  
         1       283       244   118.275 1.350e-02       579  
         1       289       260   116.659 1.350e-02       580  
         1       294       279   113.852 1.350e-02       581  
         1       296       275   114.253 1.350e-02       582  
         1       303       275   113.980 1.350e-02       583  
         1       311       174   118.350 1.350e-02       585  
         1       294       169   120.269 1.350e-02       586  
         1       319       185   117.288 1.350e-02       587  
         1       307       208   116.814 1.350e-02       588  
         1       184       123   137.070 1.350e-02       589  
         1       232       120   130.438 1.350e-02       590  
         1       239       127   129.753 1.350e-02       591  
         1       195       102   137.492 1.350e-02       592  
         1       275       102   124.244 1.350e-02       602  
         1       201       217   132.291 1.350e-02       603  
         1       189       199   132.699 1.350e-02       604  
         1       150       211   138.391 1.350e-02       605  
         1       193       206   132.005 1.350e-02       606  
         1       203       208   130.181 1.350e-02       607  
         1       263       215   121.347 1.350e-02       609  
         1       272       178   122.080 1.350e-02       610  
         1       257       185   123.694 1.350e-02       611  
         1       250       179   124.723 1.350e-02       612  
         1       253       196   124.076 1.350e-02       613  
         1       264       178   123.081 1.350e-02       614  
         1       276       184   121.626 1.350e-02       615  
         1       276       177   121.415 1.350e-02       616  
         1       275       172   121.872 1.350e-02       617  
         1       140       246   137.389 1.350e-02       620  
         1       141       252   134.691 1.350e-02       621  
         1       131       251   137.033 1.350e-02       622  
         1       325       160   116.074 1.350e-02       623  
         1       235       229   126.384 1.350e-02       624  
         1       245       243   121.809 1.350e-02       625  
         1       231       247   124.312 1.350e-02       626  
         1       224       244   124.799 1.350e-02       628  
         1       245       248   121.916 1.350e-02       629  
         1       247       227   122.953 1.350e-02       630  
         1       248       221   122.340 1.350e-02       631  
         1       128       256   139.197 1.350e-02       632  
         1       191       227   131.023 1.350e-02       633  
         1       144       264   135.207 1.350e-02       634  
         1       139       262   136.516 1.350e-02       636  
         1       116       250   140.465 1.350e-02       637  
         1       114       252   140.088 1.350e-02       638  
         1       130       237   140.162 1.350e-02       639  
         1       130       220   140.552 1.350e-02       640  
         1       169       215   134.658 1.350e-02       641  
         1       154       290   131.545 1.350e-02       642  
         1       172       299   129.048 1.350e-02       643  
         1       194       150   134.855 1.350e-02       644  
         1       198       154   132.654 1.350e-02       645  
         1       186       191   133.440 1.350e-02       646  
         1       187       229   134.915 1.350e-02       647  
         1       183       235   131.660 1.350e-02       648  
         1       194       314   124.404 1.350e-02       649  
         1       218       140   132.485 1.350e-02       650  
         1       212       129   133.069 1.350e-02       651  
         1       232       138   129.815 1.350e-02       652  
         1       224       165   129.127 1.350e-02       653  
         1       304       221   116.951 1.350e-02       654  
         1       270       293   116.842 1.350e-02       655  
         1       304       210   117.155 1.350e-02       656  
         1       308       226   116.785 1.350e-02       657  
         1       206       214   128.511 1.350e-02       658  
         1       208       212   128.662 1.350e-02       618  
         1       213       216   128.196 1.350e-02       619  
         1       229       179   127.429 1.350e-02       659  
         1       241       165   125.907 1.350e-02       533  
         1       247       214   123.460 1.350e-02       608  
       148         0                      Stress Period 4
         1       242       221   123.057 1.350e-02       500  
         1       232       233   125.176 1.350e-02       501  
         1       239       235   123.995 1.350e-02       502  
         1       254       245   120.955 1.350e-02       503  
         1       320       214   115.393 1.350e-02       504  
         1       331       209   114.616 1.350e-02       505  
         1       310       192   117.214 1.350e-02       506  
         1       296       177   120.299 1.350e-02       507  
         1       297       181   119.428 1.350e-02       508  
         1       290       182   120.053 1.350e-02       509  
         1       281       172   122.187 1.350e-02       510  
         1       198       126   135.515 1.350e-02       511  
         1       202       127   134.872 1.350e-02       512  
         1       209       130   133.452 1.350e-02       513  
         1       214       135   132.935 1.350e-02       514  
         1       207       142   133.190 1.350e-02       515  
         1       210       150   132.862 1.350e-02       516  
         1       215       147   131.197 1.350e-02       517  
         1       225       139   131.312 1.350e-02       518  
         1       227       126   131.377 1.350e-02       519  
         1       229       125   130.645 1.350e-02       520  
         1       219       121   132.753 1.350e-02       521  
         1       222       115   132.085 1.350e-02       522  
         1       211       111   133.971 1.350e-02       523  
         1       203       109   134.827 1.350e-02       524  
         1       272       252   118.902 1.350e-02       525  
         1       264       248   119.925 1.350e-02       526  