# DRN package for MODFLOW-2005 generated by Flopy 3.8.2
       148        50
       148         0 # stress period 1
         1       242       221         123.057      0.24160375
         1       232       233         125.176      0.36765644
         1       239       235         123.995      0.30881816
         1       254       245         120.955      0.20729735
         1       320       214         115.393      0.25404868
         1       331       209         114.616      0.22671303
         1       310       192         117.214     0.064250916
         1       296       177         120.299      0.30499163
         1       297       181         119.428      0.08184853
         1       290       182         120.053      0.14549184
         1       281       172         122.187      0.36503792
         1       198       126         135.515     0.112303115
         1       202       127         134.872      0.26882294
         1       209       130         133.452      0.42731383
         1       214       135         132.935      0.30807838
         1       207       142          133.19      0.09469658
         1       210       150         132.862      0.08771501
         1       215       147         131.197    0.0019466843
         1       225       139         131.312      0.37864977
         1       227       126         131.377     0.028264713
         1       229       125         130.645      0.15010834
         1       219       121         132.753      0.22482346
         1       222       115         132.085     0.033430524
         1       211       111         133.971       0.2243334
         1       203       109         134.827      0.09261009
         1       272       252         118.902      0.19644155
         1       264       248         119.925       0.3147571
         1       279       258         117.805       0.1766672
         1       275       263         118.047      0.08271353
         1       268       266         118.694     0.014562648
         1       221       162          129.26       0.0673249
         1       229       155         128.738       0.3669875
         1       224       154         130.201      0.27212524
         1       243       175         126.059       0.2008165
         1       260       171         123.636      0.33839786
         1       253       165         125.332       0.4972036
         1       252       154         126.284      0.06981848
         1       268       124          124.87       0.2056468
         1       286       149         122.401       0.3816394
         1       294       150         121.843      0.32842243
         1       288       153         121.845      0.34537283
         1       305       150         119.554      0.48412475
         1       266       146         125.334       0.2543832
         1       282       194         120.631      0.34067854
         1       291       198         119.292      0.27853915
         1       271       189         121.733       0.2044147
         1       272       200         121.401      0.20624617
         1       287       212         119.463      0.22635576
         1       269       227         120.278      0.23700368
         1       218       229         127.254       0.1908474
         1       189       262         129.009      0.39355168
         1       190       269         127.881      0.40086296
         1       184       272         129.469       0.3758211
         1       170       266         132.352      0.27904847
         1       168       263         130.838     0.053853888
         1       186       245         130.995      0.40925673
         1       190       234         130.526    0.0027427978
         1       197       242         129.115      0.20112719
         1       202       268         126.855       0.2767718
         1       210       253         126.426      0.23853242
         1       216       251         125.719      0.22184733
         1       192       196         132.519      0.08982862
         1       203       184         131.634      0.14657792
         1       203       185         131.633       0.4405541
         1       204       187         131.959      0.02314117
         1       222       204         128.353       0.3666337
         1       300        98         121.779      0.18818873
         1       256       260         119.822      0.09103473
         1       265       274         119.166      0.47229978
         1       256       271         119.308      0.24630702
         1       244       258         121.506       0.3550442
         1       237       269         121.792       0.3693973
         1       236       261         122.457      0.14469512
         1       186       298          126.35      0.24400151
         1       189       286         127.609      0.47870663
         1       267       232         119.886     0.010588303
         1       286       110         122.486      0.36526522
         1       273       244         118.884      0.15250199
         1       283       244         118.275      0.24544509
         1       289       260         116.659      0.37270874
         1       294       279         113.852      0.09057485
         1       296       275         114.253      0.49935144
         1       303       275          113.98      0.36188653
         1       311       174          118.35      0.27601662
         1       294       169         120.269      0.27897155
         1       319       185         117.288      0.42580968
         1       307       208         116.814      0.40364257
         1       184       123          137.07       0.1726063
         1       232       120         130.438      0.46277323
         1       239       127         129.753       0.2929556
         1       195       102         137.492      0.20285806
         1       275       102         124.244      0.41645485
         1       201       217         132.291      0.44514847
         1       189       199         132.699      0.17898433
         1       150       211         138.391      0.40020096
         1       193       206         132.005      0.13033533
         1       203       208         130.181      0.42636484
         1       263       215         121.347      0.12124079
         1       272       178          122.08     0.070739046
         1       257       185         123.694      0.07102005
         1       250       179         124.723      0.26468995
         1       253       196         124.076      0.26448646
         1       264       178         123.081      0.24071507
         1       276       184         121.626        0.224891
         1       276       177         121.415      0.34100035
         1       275       172         121.872      0.09851731
         1       140       246         137.389      0.13625781
         1       141       252         134.691      0.23289755
         1       131       251         137.033      0.12798533
         1       325       160         116.074     0.004001875
         1       235       229         126.384      0.02940667
         1       245       243         121.809     0.034995064
         1       231       247         124.312      0.08609652
         1       224       244         124.799       0.1024069
         1       245       248         121.916       0.4183654
         1       247       227         122.953      0.00856672
         1       248       221          122.34      0.39071798
         1       128       256         139.197         0.25997
         1       191       227         131.023      0.07284358
         1       144       264         135.207     0.028329372
         1       139       262         136.516      0.42732093
         1       116       250         140.465     0.124876425
         1       114       252         140.088      0.25037974
         1       130       237         140.162      0.19479744
         1       130       220         140.552     0.061979923
         1       169       215         134.658      0.21471798
         1       154       290         131.545      0.25896066
         1       172       299         129.048      0.25637266
         1       194       150         134.855      0.10676667
         1       198       154         132.654      0.13449332
         1       186       191          133.44       0.4018481
         1       187       229         134.915     0.025256108
         1       183       235          131.66       0.4922308
         1       194       314         124.404    0.0033628116
         1       218       140         132.485      0.10275396
         1       212       129         133.069     0.057713427
         1       232       138         129.815      0.43512675
         1       224       165         129.127      0.46468404
         1       304       221         116.951      0.36123237
         1       270       293         116.842      0.20729823
         1       304       210         117.155      0.01643137
         1       308       226         116.785      0.44037318
         1       206       214         128.511      0.17897497
         1       208       212         128.662       0.0515865
         1       213       216         128.196      0.43560869
         1       229       179         127.429      0.25362504
         1       241       165         125.907     0.078558944
         1       247       214          123.46      0.48560956
       148         0 # stress period 2
         1       242       221         123.057      0.24160375
         1       232       233         125.176      0.36765644
         1       239       235         123.995      0.30881816
         1       254       245         120.955      0.20729735
         1       320       214         115.393      0.25404868
         1       331       209         114.616      0.22671303
         1       310       192         117.214     0.064250916
         1       296       177         120.299      0.30499163
         1       297       181         119.428      0.08184853
         1       290       182         120.053      0.14549184
         1       281       172         122.187      0.36503792
         1       198       126         135.515     0.112303115
         1       202       127         134.872      0.26882294
         1       209       130         133.452      0.42731383
         1       214       135         132.935      0.30807838
         1       207       142          133.19      0.09469658
         1       210       150         132.862      0.08771501
         1       215       147         131.197    0.0019466843
         1       225       139         131.312      0.37864977
         1       227       126         131.377     0.028264713
         1       229       125         130.645      0.15010834
         1       219       121         132.753      0.22482346
         1       222       115         132.085     0.033430524
         1       211       111         133.971       0.2243334
         1       203       109         134.827      0.09261009
         1       272       252         118.902      0.19644155
         1       264       248         119.925       0.3147571
         1       279       258         117.805       0.1766672
         1       275       263         118.047      0.08271353
         1       268       266         118.694     0.014562648
         1       221       162          129.26       0.0673249
         1       229       155         128.738       0.3669875
         1       224       154         130.201      0.27212524
         1       243       175         126.059       0.2008165
         1       260       171         123.636      0.33839786
         1       253       165         125.332       0.4972036
         1       252       154         126.284      0.06981848
         1       268       124          124.87       0.2056468
         1       286       149         122.401       0.3816394
         1       294       150         121.843      0.32842243
         1       288       153         121.845      0.34537283
         1       305       150         119.554      0.48412475
         1       266       146         125.334       0.2543832
         1       282       194         120.631      0.34067854
         1       291       198         119.292      0.27853915
         1       271       189         121.733       0.2044147
         1       272       200         121.401      0.20624617
         1       287       212         119.463      0.22635576
         1       269       227         120.278      0.23700368
         1       218       229         127.254       0.1908474
         1       189       262         129.009      0.39355168
         1       190       269         127.881      0.40086296
         1       184       272         129.469       0.3758211
         1       170       266         132.352      0.27904847
         1       168       263         130.838     0.053853888
         1       186       245         130.995      0.40925673
         1       190       234         130.526    0.0027427978
         1       197       242         129.115      0.20112719
         1       202       268         126.855       0.2767718
         1       210       253         126.426      0.23853242
         1       216       251         125.719      0.22184733
         1       192       196         132.519      0.08982862
         1       203       184         131.634      0.14657792
         1       203       185         131.633       0.4405541
         1       204       187         131.959      0.02314117
         1       222       204         128.353       0.3666337
         1       300        98         121.779      0.18818873
         1       256       260         119.822      0.09103473
         1       265       274         119.166      0.47229978
         1       256       271         119.308      0.24630702
         1       244       258         121.506       0.3550442
         1       237       269         121.792       0.3693973
         1       236       261         122.457      0.14469512
         1       186       298          126.35      0.24400151
         1       189       286         127.609      0.47870663
         1       267       232         119.886     0.010588303
         1       286       110         122.486      0.36526522
         1       273       244         118.884      0.15250199
         1       283       244         118.275      0.24544509
         1       289       260         116.659      0.37270874
         1       294       279         113.852      0.09057485
         1       296       275         114.253      0.49935144
         1       303       275          113.98      0.36188653
         1       311       174          118.35      0.27601662
         1       294       169         120.269      0.27897155
         1       319       185         117.288      0.42580968
         1       307       208         116.814      0.40364257
         1       184       123          137.07       0.1726063
         1       232       120         130.438      0.46277323
         1       239       127         129.753       0.2929556
         1       195       102         137.492      0.20285806
         1       275       102         124.244      0.41645485
         1       201       217         132.291      0.44514847
         1       189       199         132.699      0.17898433
         1       150       211         138.391      0.40020096
         1       193       206         132.005      0.13033533
         1       203       208         130.181      0.42636484
         1       263       215         121.347      0.12124079
         1       272       178          122.08     0.070739046
         1       257       185         123.694      0.07102005
         1       250       179         124.723      0.26468995
         1       253       196         124.076      0.26448646
         1       264       178         123.081      0.24071507
         1       276       184         121.626        0.224891
         1       276       177         121.415      0.34100035
         1       275       172         121.872      0.09851731
         1       140       246         137.389      0.13625781
         1       141       252         134.691      0.23289755
         1       131       251         137.033      0.12798533
         1       325       160         116.074     0.004001875
         1       235       229         126.384      0.02940667
         1       245       243         121.809     0.034995064
         1       231       247         124.312      0.08609652
         1       224       244         124.799       0.1024069
         1       245       248         121.916       0.4183654
         1       247       227         122.953      0.00856672
         1       248       221          122.34      0.39071798
         1       128       256         139.197         0.25997
         1       191       227         131.023      0.07284358
         1       144       264         135.207     0.028329372
         1       139       262         136.516      0.42732093
         1       116       250         140.465     0.124876425
         1       114       252         140.088      0.25037974
         1       130       237         140.162      0.19479744
         1       130       220         140.552     0.061979923
         1       169       215         134.658      0.21471798
         1       154       290         131.545      0.25896066
         1       172       299         129.048      0.25637266
         1       194       150         134.855      0.10676667
         1       198       154         132.654      0.13449332
         1       186       191          133.44       0.4018481
         1       187       229         134.915     0.025256108
         1       183       235          131.66       0.4922308
         1       194       314         124.404    0.0033628116
         1       218       140         132.485      0.10275396
         1       212       129         133.069     0.057713427
         1       232       138         129.815      0.43512675
         1       224       165         129.127      0.46468404
         1       304       221         116.951      0.36123237
         1       270       293         116.842      0.20729823
         1       304       210         117.155      0.01643137
         1       308       226         116.785      0.44037318
         1       206       214         128.511      0.17897497
         1       208       212         128.662       0.0515865
         1       213       216         128.196      0.43560869
         1       229       179         127.429      0.25362504
         1       241       165         125.907     0.078558944
         1       247       214          123.46      0.48560956
       148         0 # stress period 3
         1       242       221         123.057      0.24160375
         1       232       233         125.176      0.36765644
         1       239       235         123.995      0.30881816
         1       254       245         120.955      0.20729735
         1       320       214         115.393      0.25404868
         1       331       209         114.616      0.22671303
         1       310       192         117.214     0.064250916
         1       296       177         120.299      0.30499163
         1       297       181         119.428      0.08184853
         1       290       182         120.053      0.14549184
         1       281       172         122.187      0.36503792
         1       198       126         135.515     0.112303115
         1       202       127         134.872      0.26882294
         1       209       130         133.452      0.42731383
         1       214       135         132.935      0.30807838
         1       207       142          133.19      0.09469658
         1       210       150         132.862      0.08771501
         1       215       147         131.197    0.0019466843
         1       225       139         131.312      0.37864977
         1       227       126         131.377     0.028264713
         1       229       125         130.645      0.15010834
         1       219       121         132.753      0.22482346
         1       222       115         132.085     0.033430524
         1       211       111         133.971       0.2243334
         1       203       109         134.827      0.09261009
         1       272       252         118.902      0.19644155
         1       264       248         119.925       0.3147571
         1       279       258         117.805       0.1766672
         1       275       263         118.047      0.08271353
         1       268       266         118.694     0.014562648
         1       221       162          129.26       0.0673249
         1       229       155         128.738       0.3669875
         1       224       154         130.201      0.27212524
         1       243       175         126.059       0.2008165
         1       260       171         123.636      0.33839786
         1       253       165         125.332       0.4972036
         1       252       154         126.284      0.06981848
         1       268       124          124.87       0.2056468
         1       286       149         122.401       0.3816394
         1       294       150         121.843      0.32842243
         1       288       153         121.845      0.34537283
         1       305       150         119.554      0.48412475
         1       266       146         125.334       0.2543832
         1       282       194         120.631      0.34067854
         1       291       198         119.292      0.27853915
         1       271       189         121.733       0.2044147
         1       272       200         121.401      0.20624617
         1       287       212         119.463      0.22635576
         1       269       227         120.278      0.23700368
         1       218       229         127.254       0.1908474
         1       189       262         129.009      0.39355168
         1       190       269         127.881      0.40086296
         1       184       272         129.469       0.3758211
         1       170       266         132.352      0.27904847
         1       168       263         130.838     0.053853888
         1       186       245         130.995      0.40925673
         1       190       234         130.526    0.0027427978
         1       197       242         129.115      0.20112719
         1       202       268         126.855       0.2767718
         1       210       253         126.426      0.23853242
         1       216       251         125.719      0.22184733
         1       192       196         132.519      0.08982862
         1       203       184         131.634      0.14657792
         1       203       185         131.633       0.4405541
         1       204       187         131.959      0.02314117
         1       222       204         128.353       0.3666337
         1       300        98         121.779      0.18818873
         1       256       260         119.822      0.09103473
         1       265       274         119.166      0.47229978
         1       256       271         119.308      0.24630702
         1       244       258         121.506       0.3550442
         1       237       269         121.792       0.3693973
         1       236       261         122.457      0.14469512
         1       186       298          126.35      0.24400151
         1       189       286         127.609      0.47870663
         1       267       232         119.886     0.010588303
         1       286       110         122.486      0.36526522
         1       273       244         118.884      0.15250199
         1       283       244         118.275      0.24544509
         1       289       260         116.659      0.37270874
         1       294       279         113.852      0.09057485
         1       296       275         114.253      0.49935144
         1       303       275          113.98      0.36188653
         1       311       174          118.35      0.27601662
         1       294       169         120.269      0.27897155
         1       319       185         117.288      0.42580968
         1       307       208         116.814      0.40364257
         1       184       123          137.07       0.1726063
         1       232       120         130.438      0.46277323
         1       239       127         129.753       0.2929556
         1       195       102         137.492      0.20285806
         1       275       102         124.244      0.41645485
         1       201       217         132.291      0.44514847
         1       189       199         132.699      0.17898433
         1       150       211         138.391      0.40020096
         1       193       206         132.005      0.13033533
         1       203       208         130.181      0.42636484
         1       263       215         121.347      0.12124079
         1       272       178          122.08     0.070739046
         1       257       185         123.694      0.07102005
         1       250       179         124.723      0.26468995
         1       253       196         124.076      0.26448646
         1       264       178         123.081      0.24071507
         1       276       184         121.626        0.224891
         1       276       177         121.415      0.34100035
         1       275       172         121.872      0.09851731
         1       140       246         137.389      0.13625781
         1       141       252         134.691      0.23289755
         1       131       251         137.033      0.12798533
         1       325       160         116.074     0.004001875
         1       235       229         126.384      0.02940667
         1       245       243         121.809     0.034995064
         1       231       247         124.312      0.08609652
         1       224       244         124.799       0.1024069
         1       245       248         121.916       0.4183654
         1       247       227         122.953      0.00856672
         1       248       221          122.34      0.39071798
         1       128       256         139.197         0.25997
         1       191       227         131.023      0.07284358
         1       144       264         135.207     0.028329372
         1       139       262         136.516      0.42732093
         1       116       250         140.465     0.124876425
         1       114       252         140.088      0.25037974
         1       130       237         140.162      0.19479744
         1       130       220         140.552     0.061979923
         1       169       215         134.658      0.21471798
         1       154       290         131.545      0.25896066
         1       172       299         129.048      0.25637266
         1       194       150         134.855      0.10676667
         1       198       154         132.654      0.13449332
         1       186       191          133.44       0.4018481
         1       187       229         134.915     0.025256108
         1       183       235          131.66       0.4922308
         1       194       314         124.404    0.0033628116
         1       218       140         132.485      0.10275396
         1       212       129         133.069     0.057713427
         1       232       138         129.815      0.43512675
         1       224       165         129.127      0.46468404
         1       304       221         116.951      0.36123237
         1       270       293         116.842      0.20729823
         1       304       210         117.155      0.01643137
         1       308       226         116.785      0.44037318
         1       206       214         128.511      0.17897497
         1       208       212         128.662       0.0515865
         1       213       216         128.196      0.43560869
         1       229       179         127.429      0.25362504
         1       241       165         125.907     0.078558944
         1       247       214          123.46      0.48560956
       148         0 # stress period 4
         1       242       221         123.057      0.24160375
         1       232       233         125.176      0.36765644
         1       239       235         123.995      0.30881816
         1       254       245         120.955      0.20729735
         1       320       214         115.393      0.25404868
         1       331       209         114.616      0.22671303
         1       310       192         117.214     0.064250916
         1       296       177         120.299      0.30499163
         1       297       181         119.428      0.08184853
         1       290       182         120.053      0.14549184
         1       281       172         122.187      0.36503792
         1       198       126         135.515     0.112303115
         1       202       127         134.872      0.26882294
         1       209       130         133.452      0.42731383
         1       214       135         132.935      0.30807838
         1       207       142          133.19      0.09469658
         1       210       150         132.862      0.08771501
         1       215       147         131.197    0.0019466843
         1       225       139         131.312      0.37864977
         1       227       126         131.377     0.028264713
         1       229       125         130.645      0.15010834
         1       219       121         132.753      0.22482346
         1       222       115         132.085     0.033430524
         1       211       111         133.971       0.2243334
         1       203       109         134.827      0.09261009
         1       272       252         118.902      0.19644155
         1       264       248         119.925       0.3147571
         1       279       258         117.805       0.1766672