# SFR Package for MODFLOW-USGs
 -173  7  0  0  1.000000e+00  1.000000e-04  50  54 1 10 1 30
  4553  1  1  110.000000  175.561879  0.000019  0.500000  0.000001
  4554  1  2  10.000000  175.561635  0.000019  0.500000  0.000001
  4677  1  3  98.000000  175.560600  0.000019  0.500000  0.000001
  4678  1  4  61.000000  175.559061  0.000019  0.500000  0.000001
  4679  2  1  103.000000  175.555620  0.000019  0.500000  0.000001
  4680  2  2  102.000000  175.552785  0.000019  0.500000  0.000001
  4681  2  3  7.000000  175.551470  0.000019  0.500000  0.000001
  4804  2  4  95.000000  175.549867  0.000019  0.500000  0.000001
  4805  2  5  107.000000  175.547201  0.000019  0.500000  0.000001
  4806  2  6  79.000000  175.544698  0.000019  0.500000  0.000001
  4929  2  7  43.000000  175.543353  0.000019  0.500000  0.000001
  4930  2  8  115.000000  175.540935  0.000019  0.500000  0.000001
  5053  2  9  14.000000  175.539558  0.000019  0.500000  0.000001
  5054  2  10  102.000000  175.538019  0.000019  0.500000  0.000001
  5055  3  1  21.000000  175.535786  0.000019  0.500000  0.000001
  5178  3  2  105.000000  175.534553  0.000019  0.500000  0.000001
  5179  3  3  66.000000  175.532855  0.000019  0.500000  0.000001
  5302  3  4  58.000000  175.531721  0.000019  0.500000  0.000001
  5303  3  5  116.000000  175.529882  0.000019  0.500000  0.000001
  5304  3  6  7.000000  175.528923  0.000019  0.500000  0.000001
  5427  3  7  51.000000  175.528380  0.000019  0.500000  0.000001
  5428  4  1  90.000000  175.525499  0.000019  0.500000  0.000001
  5551  4  2  23.000000  175.524427  0.000019  0.500000  0.000001
  5552  4  3  104.000000  175.523268  0.000019  0.500000  0.000001
  5553  4  4  100.000000  175.521131  0.000019  0.500000  0.000001
  5554  4  5  100.000000  175.519189  0.000019  0.500000  0.000001
  5555  4  6  100.000000  175.516913  0.000019  0.500000  0.000001
  5556  4  7  100.000000  175.515264  0.000019  0.500000  0.000001
  5557  4  8  100.000000  175.513300  0.000019  0.500000  0.000001
  5558  4  9  100.000000  175.511273  0.000019  0.500000  0.000001
  5559  4  10  101.000000  175.509400  0.000019  0.500000  0.000001
  5682  4  11  9.000000  175.508254  0.000019  0.500000  0.000001
  5683  4  12  118.000000  175.507287  0.000019  0.500000  0.000001
  5684  5  1  10.000000  175.505507  0.000019  0.500000  0.000001
  5807  5  2  115.000000  175.504032  0.000019  0.500000  0.000001
  5808  5  3  51.000000  175.502698  0.000019  0.500000  0.000001
  5931  5  4  71.000000  175.501389  0.000019  0.500000  0.000001
  5932  5  5  110.000000  175.499535  0.000019  0.500000  0.000001
  5933  5  6  27.000000  175.498442  0.000019  0.500000  0.000001
  6056  5  7  86.000000  175.497237  0.000019  0.500000  0.000001
  6057  5  8  105.000000  175.495500  0.000019  0.500000  0.000001
  6058  5  9  80.000000  175.493912  0.000019  0.500000  0.000001
  6181  5  10  27.000000  175.492683  0.000019  0.500000  0.000001
  6182  5  11  108.000000  175.491295  0.000019  0.500000  0.000001
  6183  5  12  108.000000  175.489006  0.000019  0.500000  0.000001
  6184  5  13  15.000000  175.488097  0.000019  0.500000  0.000001
  6307  5  14  94.000000  175.486913  0.000019  0.500000  0.000001
  6308  5  15  110.000000  175.485079  0.000019  0.500000  0.000001
  6309  5  16  39.000000  175.483642  0.000019  0.500000  0.000001
  6432  5  17  71.000000  175.482582  0.000019  0.500000  0.000001
  6433  5  18  112.000000  175.481160  0.000019  0.500000  0.000001
  6434  5  19  40.000000  175.479342  0.000019  0.500000  0.000001
  6557  5  20  68.000000  175.478379  0.000019  0.500000  0.000001
  6558  5  21  102.000000  175.476661  0.000019  0.500000  0.000001
  6559  5  22  102.000000  175.474687  0.000019  0.500000  0.000001
  6560  5  23  102.000000  175.472727  0.000019  0.500000  0.000001
  6561  5  24  90.000000  175.470701  0.000019  0.500000  0.000001
  6684  5  25  12.000000  175.469887  0.000019  0.500000  0.000001
  6685  5  26  103.000000  175.468787  0.000019  0.500000  0.000001
  6686  5  27  102.000000  175.466806  0.000019  0.500000  0.000001
  6687  5  28  103.000000  175.464815  0.000019  0.500000  0.000001
  6688  5  29  103.000000  175.462845  0.000019  0.500000  0.000001
  6689  5  30  8.000000  175.461778  0.000019  0.500000  0.000001
  6812  5  31  95.000000  175.460788  0.000019  0.500000  0.000001
  6813  5  32  101.000000  175.459165  0.000019  0.500000  0.000001
  6814  5  33  104.000000  175.456834  0.000019  0.500000  0.000001
  6815  5  34  89.000000  175.455028  0.000019  0.500000  0.000001
  6692  5  35  21.000000  175.453929  0.000019  0.500000  0.000001
  6693  5  36  132.000000  175.452184  0.000019  0.500000  0.000001
  6570  5  37  23.000000  175.450982  0.000019  0.500000  0.000001
  6571  5  38  40.000000  175.450383  0.000019  0.500000  0.000001
  6448  6  1  106.000000  175.448489  0.000019  0.500000  0.000001
  6325  6  2  107.000000  175.446658  0.000019  0.500000  0.000001
  6326  6  3  1.000000  175.445364  0.000019  0.500000  0.000001
  6203  6  4  113.000000  175.444130  0.000019  0.500000  0.000001
  6080  6  5  78.000000  175.442164  0.000019  0.500000  0.000001
  6081  6  6  88.000000  175.440763  0.000019  0.500000  0.000001
  5958  6  7  23.000000  175.439684  0.000019  0.500000  0.000001
  5959  6  8  110.000000  175.438028  0.000019  0.500000  0.000001
  5960  6  9  90.000000  175.436426  0.000019  0.500000  0.000001
  5837  6  10  23.000000  175.435328  0.000019  0.500000  0.000001
  5838  6  11  113.000000  175.434004  0.000019  0.500000  0.000001
  5839  6  12  78.000000  175.432141  0.000019  0.500000  0.000001
  5716  6  13  35.000000  175.431043  0.000019  0.500000  0.000001
  5717  6  14  113.000000  175.429910  0.000019  0.500000  0.000001
  5718  6  15  63.000000  175.427884  0.000019  0.500000  0.000001
  5595  6  16  50.000000  175.426779  0.000019  0.500000  0.000001
  5596  6  17  114.000000  175.425183  0.000019  0.500000  0.000001
  5597  6  18  67.000000  175.423566  0.000019  0.500000  0.000001
  5474  6  19  38.000000  175.422394  0.000019  0.500000  0.000001
  5475  6  20  104.000000  175.421008  0.000019  0.500000  0.000001
  5476  6  21  105.000000  175.418974  0.000019  0.500000  0.000001
  5477  6  22  101.000000  175.417112  0.000019  0.500000  0.000001
  5478  6  23  100.000000  175.415014  0.000019  0.500000  0.000001
  5479  6  24  99.000000  175.412819  0.000019  0.500000  0.000001
  5480  6  25  100.000000  175.411121  0.000019  0.500000  0.000001
  5481  6  26  86.000000  175.409317  0.000019  0.500000  0.000001
  5359  6  27  100.000000  175.406967  0.000019  0.500000  0.000001
  5360  6  28  100.000000  175.405280  0.000019  0.500000  0.000001
  5361  6  29  100.000000  175.403150  0.000019  0.500000  0.000001
  5362  6  30  27.000000  175.402083  0.000019  0.500000  0.000001
  5485  6  31  116.000000  175.401007  0.000019  0.500000  0.000001
  5608  6  32  46.000000  175.399108  0.000019  0.500000  0.000001
  5609  6  33  61.000000  175.398150  0.000019  0.500000  0.000001
  5732  6  34  103.000000  175.396471  0.000019  0.500000  0.000001
  5855  6  35  117.000000  175.394414  0.000019  0.500000  0.000001
  5978  6  36  7.000000  175.393107  0.000019  0.500000  0.000001
  5979  6  37  128.000000  175.391818  0.000019  0.500000  0.000001
  6102  6  38  18.000000  175.390359  0.000019  0.500000  0.000001
  6103  6  39  123.000000  175.388682  0.000019  0.500000  0.000001
  6226  6  40  18.000000  175.387609  0.000019  0.500000  0.000001
  6227  6  41  133.000000  175.385806  0.000019  0.500000  0.000001
  6228  6  42  3.000000  175.384795  0.000019  0.500000  0.000001
  6351  6  43  101.000000  175.383793  0.000019  0.500000  0.000001
  6352  6  44  101.000000  175.382064  0.000019  0.500000  0.000001
  6353  6  45  102.000000  175.379841  0.000019  0.500000  0.000001
  6354  6  46  101.000000  175.377863  0.000019  0.500000  0.000001
  6355  6  47  102.000000  175.375798  0.000019  0.500000  0.000001
  6356  6  48  6.000000  175.374840  0.000019  0.500000  0.000001
  6479  6  49  95.000000  175.373855  0.000019  0.500000  0.000001
  6480  6  50  101.000000  175.371942  0.000019  0.500000  0.000001
  6481  6  51  102.000000  175.369970  0.000019  0.500000  0.000001
  6482  6  52  101.000000  175.367999  0.000019  0.500000  0.000001
  6483  6  53  102.000000  175.366027  0.000019  0.500000  0.000001
  6484  6  54  94.000000  175.364097  0.000019  0.500000  0.000001
  6607  6  55  7.000000  175.363128  0.000019  0.500000  0.000001
  6608  6  56  102.000000  175.362067  0.000019  0.500000  0.000001
  6609  6  57  102.000000  175.360078  0.000019  0.500000  0.000001
  6610  6  58  102.000000  175.358089  0.000019  0.500000  0.000001
  6611  6  59  103.000000  175.356099  0.000019  0.500000  0.000001
  6612  6  60  59.000000  175.354532  0.000019  0.500000  0.000001
  6735  6  61  42.000000  175.353532  0.000019  0.500000  0.000001
  6736  6  62  102.000000  175.352129  0.000019  0.500000  0.000001
  6737  6  63  102.000000  175.350151  0.000019  0.500000  0.000001
  6738  6  64  101.000000  175.348173  0.000019  0.500000  0.000001
  6739  6  65  102.000000  175.346194  0.000019  0.500000  0.000001
  6740  6  66  91.000000  175.344316  0.000019  0.500000  0.000001
  6863  6  67  11.000000  175.343327  0.000019  0.500000  0.000001
  6864  6  68  101.000000  175.341969  0.000019  0.500000  0.000001
  6865  6  69  102.000000  175.340259  0.000019  0.500000  0.000001
  6866  6  70  63.000000  175.338656  0.000019  0.500000  0.000001
  6867  7  1  101.000000  175.335263  0.000019  0.500000  0.000001
  6868  7  2  101.000000  175.333108  0.000019  0.500000  0.000001
  6869  7  3  32.000000  175.331678  0.000019  0.500000  0.000001
  6992  7  4  70.000000  175.330596  0.000019  0.500000  0.000001
  6993  7  5  102.000000  175.328776  0.000019  0.500000  0.000001
  6994  7  6  100.000000  175.326971  0.000019  0.500000  0.000001
  6995  7  7  100.000000  175.324506  0.000019  0.500000  0.000001
  6996  7  8  102.000000  175.322160  0.000019  0.500000  0.000001
  6997  7  9  55.000000  175.320688  0.000019  0.500000  0.000001
  6874  7  10  55.000000  175.319517  0.000019  0.500000  0.000001
  6875  7  11  110.000000  175.317759  0.000019  0.500000  0.000001
  6876  7  12  58.000000  175.316117  0.000019  0.500000  0.000001
  6753  7  13  59.000000  175.314716  0.000019  0.500000  0.000001
  6754  7  14  118.000000  175.312834  0.000019  0.500000  0.000001
  6755  7  15  11.000000  175.311467  0.000019  0.500000  0.000001
  6632  7  16  120.000000  175.310340  0.000019  0.500000  0.000001
  6633  7  17  30.000000  175.308462  0.000019  0.500000  0.000001
  6510  7  18  121.000000  175.306858  0.000019  0.500000  0.000001
  6511  7  19  10.000000  175.305462  0.000019  0.500000  0.000001
  6388  7  20  122.000000  175.303870  0.000019  0.500000  0.000001
  6265  7  21  42.000000  175.302318  0.000019  0.500000  0.000001
  6266  7  22  81.000000  175.301008  0.000019  0.500000  0.000001
  6143  7  23  61.000000  175.299538  0.000019  0.500000  0.000001
  6144  7  24  100.000000  175.297634  0.000019  0.500000  0.000001
  6145  7  25  49.000000  175.296159  0.000019  0.500000  0.000001
  6268  7  26  54.000000  175.295068  0.000019  0.500000  0.000001
  6269  7  27  107.000000  175.293695  0.000019  0.500000  0.000001
  6270  7  28  107.000000  175.291242  0.000019  0.500000  0.000001
  6271  7  29  27.000000  175.289647  0.000019  0.500000  0.000001
  6394  7  30  113.000000  175.288489  0.000019  0.500000  0.000001
  6395  7  31  20.000000  175.286720  0.000019  0.500000  0.000001
  6518  7  32  95.000000  175.285498  0.000019  0.500000  0.000001
         7         0         0         0
         1         2         2         0         0         0  1.185710         0         0         0  0.017000  0.017000
  0.000000  2.390000  4.380000  4.730000  9.290000 15.260000 15.560000 19.730000
  0.000000  2.390000  4.380000  4.730000  9.290000 15.260000 15.560000 19.730000

         7         0         0         0
         2         2         3         0         0         0  0.000000         0         0         0  0.017000  0.017000
  0.000000  2.390000  4.380000  4.730000  9.290000 15.260000 15.560000 19.730000
  0.000000  2.390000  4.380000  4.730000  9.290000 15.260000 15.560000 19.730000

         7         0         0         0
         3         2         4         0         0         0  0.000000         0         0         0  0.017000  0.017000
  0.000000  2.390000  4.380000  4.730000  9.290000 15.260000 15.560000 19.730000
  0.000000  2.390000  4.380000  4.730000  9.290000 15.260000 15.560000 19.730000

         7         0         0         0
         4         2         5         0         0         0  0.000000         0         0         0  0.017000  0.017000
  0.000000  2.390000  4.380000  4.730000  9.290000 15.260000 15.560000 19.730000
  0.000000  2.390000  4.380000  4.730000  9.290000 15.260000 15.560000 19.730000

         7         0         0         0
         5         2         6         0         0         0  0.000000         0         0         0  0.017000  0.017000
  0.000000  2.390000  4.380000  4.730000  9.290000 15.260000 15.560000 19.730000
  0.000000  2.390000  4.380000  4.730000  9.290000 15.260000 15.560000 19.730000

         7         0         0         0
         6         2         7         0         0         0  0.000000         0         0         0  0.017000  0.017000
  0.000000  2.390000  4.380000  4.730000  9.290000 15.260000 15.560000 19.730000
  0.000000  2.390000  4.380000  4.730000  9.290000 15.260000 15.560000 19.730000

         7         0         0         0
         7         2         0         0         0         0  0.000000         0         0         0  0.017000  0.017000
  0.000000  2.390000  4.380000  4.730000  9.290000 15.260000 15.560000 19.730000
  0.000000  2.390000  4.380000  4.730000  9.290000 15.260000 15.560000 19.730000
         7         0         0         0
         1         2         2         0         0         0  0.000000         0         0         0  0.017000  0.017000
  0.000000  2.390000  4.380000  4.730000  9.290000 15.260000 15.560000 19.730000
  0.000000  2.390000  4.380000  4.730000  9.290000 15.260000 15.560000 19.730000
         7         0         0         0
         2         2         3         0         0         0  0.000000         0         0         0  0.017000  0.017000
  0.000000  2.390000  4.380000  4.730000  9.290000 15.260000 15.560000 19.730000
  0.000000  2.390000  4.380000  4.730000  9.290000 15.260000 15.560000 19.730000
         7         0         0         0
         3         2         4         0         0         0  0.000000         0         0         0  0.017000  0.017000
  0.000000  2.390000  4.380000  4.730000  9.290000 15.260000 15.560000 19.730000
  0.000000  2.390000  4.380000  4.730000  9.290000 15.260000 15.560000 19.730000
         7         0         0         0
         4         2         5         0         0         0  0.000000         0         0         0  0.017000  0.017000
  0.000000  2.390000  4.380000  4.730000  9.290000 15.260000 15.560000 19.730000
  0.000000  2.390000  4.380000  4.730000  9.290000 15.260000 15.560000 19.730000
         7         0         0         0
         5         2         6         0         0         0  0.000000         0         0         0  0.017000  0.017000
  0.000000  2.390000  4.380000  4.730000  9.290000 15.260000 15.560000 19.730000
  0.000000  2.390000  4.380000  4.730000  9.290000 15.260000 15.560000 19.730000
         7         0         0         0
         6         2         7         0         0         0  0.000000         0         0         0  0.017000  0.017000
  0.000000  2.390000  4.380000  4.730000  9.290000 15.260000 15.560000 19.730000
  0.000000  2.390000  4.380000  4.730000  9.290000 15.260000 15.560000 19.730000
         7         0         0         0
         7         2         0         0         0         0  0.000000         0         0         0  0.017000  0.017000
  0.000000  2.390000  4.380000  4.730000  9.290000 15.260000 15.560000 19.730000
  0.000000  2.390000  4.380000  4.730000  9.290000 15.260000 15.560000 19.730000
         7         0         0         0
         1         2         2         0         0         0  0.000000         0         0         0  0.017000  0.017000
  0.000000  2.390000  4.380000  4.730000  9.290000 15.260000 15.560000 19.730000
  0.000000  2.390000  4.380000  4.730000  9.290000 15.260000 15.560000 19.730000
         7         0         0         0
         2         2         3         0         0         0  0.000000         0         0         0  0.017000  0.017000
  0.000000  2.390000  4.380000  4.730000  9.290000 15.260000 15.560000 19.730000
  0.000000  2.390000  4.380000  4.730000  9.290000 15.260000 15.560000 19.730000
         7         0         0         0
         3         2         4         0         0         0  0.000000         0         0         0  0.017000  0.017000
  0.000000  2.390000  4.380000  4.730000  9.290000 15.260000 15.560000 19.730000
  0.000000  2.390000  4.380000  4.730000  9.290000 15.260000 15.560000 19.730000
         7         0         0         0
         4         2         5         0         0         0  0.000000         0         0         0  0.017000  0.017000
  0.000000  2.390000  4.380000  4.730000  9.290000 15.260000 15.560000 19.730000
  0.000000  2.390000  4.380000  4.730000  9.290000 15.260000 15.560000 19.730000
         7         0         0         0
         5         2         6         0         0         0  0.000000         0         0         0  0.017000  0.017000
  0.000000  2.390000  4.380000  4.730000  9.290000 15.260000 15.560000 19.730000
  0.000000  2.390000  4.380000  4.730000  9.290000 15.260000 15.560000 19.730000
         7         0         0         0
         6         2         7         0         0         0  0.000000         0         0         0  0.017000  0.017000
  0.000000  2.390000  4.380000  4.730000  9.290000 15.260000 15.560000 19.730000
  0.000000  2.390000  4.380000  4.730000  9.290000 15.260000 15.560000 19.730000
         7         0         0         0
         7         2         0         0         0         0  0.000000         0         0         0  0.017000  0.017000
  0.000000  2.390000  4.380000  4.730000  9.290000 15.260000 15.560000 19.730000
  0.000000  2.390000  4.380000  4.730000  9.290000 15.260000 15.560000 19.730000
         7         0         0         0
         1         2         2         0         0         0  0.000000         0         0         0  0.017000  0.017000
  0.000000  2.390000  4.380000  4.730000  9.290000 15.260000 15.560000 19.730000
  0.000000  2.390000  4.380000  4.730000  9.290000 15.260000 15.560000 19.730000
         7         0         0         0
         2         2         3         0         0         0  0.000000         0         0         0  0.017000  0.017000
  0.000000  2.390000  4.380000  4.730000  9.290000 15.260000 15.560000 19.730000
  0.000000  2.390000  4.380000  4.730000  9.290000 15.260000 15.560000 19.730000
         7         0         0         0
         3         2         4         0         0         0  0.000000         0         0         0  0.017000  0.017000
  0.000000  2.390000  4.380000  4.730000  9.290000 15.260000 15.560000 19.730000
  0.000000  2.390000  4.380000  4.730000  9.290000 15.260000 15.560000 19.730000
         7         0         0         0
         4         2         5         0         0         0  0.000000         0         0         0  0.017000  0.017000
  0.000000  2.390000  4.380000  4.730000  9.290000 15.260000 15.560000 19.730000
  0.000000  2.390000  4.380000  4.730000  9.290000 15.260000 15.560000 19.730000
         7         0         0         0
         5         2         6         0         0         0  0.000000         0         0         0  0.017000  0.017000
  0.000000  2.390000  4.380000  4.730000  9.290000 15.260000 15.560000 19.730000
  0.000000  2.390000  4.380000  4.730000  9.290000 15.260000 15.560000 19.730000
         7         0         0         0
         6         2         7         0         0         0  0.000000         0         0         0  0.017000  0.017000
  0.000000  2.390000  4.380000  4.730000  9.290000 15.260000 15.560000 19.730000
  0.000000  2.390000  4.380000  4.730000  9.290000 15.260000 15.560000 19.730000
         7         0         0         0
         7         2         0         0         0         0  0.000000         0         0         0  0.017000  0.017000
  0.000000  2.390000  4.380000  4.730000  9.290000 15.260000 15.560000 19.730000
  0.000000  2.390000  4.380000  4.730000  9.290000 15.260000 15.560000 19.730000
         7         0         0         0
         1         2         2         0         0         0  0.000000         0         0         0  0.017000  0.017000
  0.000000  2.390000  4.380000  4.730000  9.290000 15.260000 15.560000 19.730000
  0.000000  2.390000  4.380000  4.730000  9.290000 15.260000 15.560000 19.730000
         7         0         0         0
         2         2         3         0         0         0  0.000000         0         0         0  0.017000  0.017000
  0.000000  2.390000  4.380000  4.730000  9.290000 15.260000 15.560000 19.730000
  0.000000  2.390000  4.380000  4.730000  9.290000 15.260000 15.560000 19.730000
         7         0         0         0
         3         2         4         0         0         0  0.000000         0         0         0  0.017000  0.017000
  0.000000  2.390000  4.380000  4.730000  9.290000 15.260000 15.560000 19.730000
  0.000000  2.390000  4.380000  4.730000  9.290000 15.260000 15.560000 19.730000
         7         0         0         0
         4         2         5         0         0         0  0.000000         0         0         0  0.017000  0.017000
  0.000000  2.390000  4.380000  4.730000  9.290000 15.260000 15.560000 19.730000
  0.000000  2.390000  4.380000  4.730000  9.290000 15.260000 15.560000 19.730000
         7         0         0         0
         5         2         6         0         0         0  0.000000         0         0         0  0.017000  0.017000
  0.000000  2.390000  4.380000  4.730000  9.290000 15.260000 15.560000 19.730000
  0.000000  2.390000  4.380000  4.730000  9.290000 15.260000 15.560000 19.730000
         7         0         0         0
         6         2         7         0         0         0  0.000000         0         0         0  0.017000  0.017000
  0.000000  2.390000  4.380000  4.730000  9.290000 15.260000 15.560000 19.730000
  0.000000  2.390000  4.380000  4.730000  9.290000 15.260000 15.560000 19.730000
         7         0         0         0
         7         2         0         0         0         0  0.000000         0         0         0  0.017000  0.017000
  0.000000  2.390000  4.380000  4.730000  9.290000 15.260000 15.560000 19.730000
  0.000000  2.390000  4.380000  4.730000  9.290000 15.260000 15.560000 19.730000
         7         0         0         0
         1         2         2         0         0         0  0.000000         0         0         0  0.017000  0.017000
  0.000000  2.390000  4.380000  4.730000  9.290000 15.260000 15.560000 19.730000
  0.000000  2.390000  4.380000  4.730000  9.290000 15.260000 15.560000 19.730000
         7         0         0         0
         2         2         3         0         0         0  0.000000         0         0         0  0.017000  0.017000
  0.000000  2.390000  4.380000  4.730000  9.290000 15.260000 15.560000 19.730000
  0.000000  2.390000  4.380000  4.730000  9.290000 15.260000 15.560000 19.730000
         7         0         0         0
         3         2         4         0         0         0  0.000000         0         0         0  0.017000  0.017000
  0.000000  2.390000  4.380000  4.730000  9.290000 15.260000 15.560000 19.730000
  0.000000  2.390000  4.380000  4.730000  9.290000 15.260000 15.560000 19.730000
         7         0         0         0
         4         2         5         0         0         0  0.000000         0         0         0  0.017000  0.017000
  0.000000  2.390000  4.380000  4.730000  9.290000 15.260000 15.560000 19.730000
  0.000000  2.390000  4.380000  4.730000  9.290000 15.260000 15.560000 19.730000
         7         0         0         0
         5         2         6         0         0         0  0.000000         0         0         0  0.017000  0.017000
  0.000000  2.390000  4.380000  4.730000  9.290000 15.260000 15.560000 19.730000
  0.000000  2.390000  4.380000  4.730000  9.290000 15.260000 15.560000 19.730000
         7         0         0         0
         6         2         7         0         0         0  0.000000         0         0         0  0.017000  0.017000
  0.000000  2.390000  4.380000  4.730000  9.290000 15.260000 15.560000 19.730000
  0.000000  2.390000  4.380000  4.730000  9.290000 15.260000 15.560000 19.730000
         7         0         0         0
         7         2         0         0         0         0  0.000000         0         0         0  0.017000  0.017000
  0.000000  2.390000  4.380000  4.730000  9.290000 15.260000 15.560000 19.730000
  0.000000  2.390000  4.380000  4.730000  9.290000 15.260000 15.560000 19.730000
         7         0         0         0
         1         2         2         0         0         0  0.000000         0         0         0  0.017000  0.017000
  0.000000  2.390000  4.380000  4.730000  9.290000 15.260000 15.560000 19.730000
  0.000000  2.390000  4.380000  4.730000  9.290000 15.260000 15.560000 19.730000
         7         0         0         0
         2         2         3         0         0         0  0.000000         0         0         0  0.017000  0.017000
  0.000000  2.390000  4.380000  4.730000  9.290000 15.260000 15.560000 19.730000
  0.000000  2.390000  4.380000  4.730000  9.290000 15.260000 15.560000 19.730000
         7         0         0         0
         3         2         4         0         0         0  0.000000         0         0         0  0.017000  0.017000
  0.000000  2.390000  4.380000  4.730000  9.290000 15.260000 15.560000 19.730000
  0.000000  2.390000  4.380000  4.730000  9.290000 15.260000 15.560000 19.730000
         7         0         0         0
         4         2         5         0         0         0  0.000000         0         0         0  0.017000  0.017000
  0.000000  2.390000  4.380000  4.730000  9.290000 15.260000 15.560000 19.730000
  0.000000  2.390000  4.380000  4.730000  9.290000 15.260000 15.560000 19.730000
         7         0         0         0
         5         2         6         0         0         0  0.000000         0         0         0  0.017000  0.017000
  0.000000  2.390000  4.380000  4.730000  9.290000 15.260000 15.560000 19.730000
  0.000000  2.390000  4.380000  4.730000  9.290000 15.260000 15.560000 19.730000
         7         0         0         0
         6         2         7         0         0         0  0.000000         0         0         0  0.017000  0.017000
  0.000000  2.390000  4.380000  4.730000  9.290000 15.260000 15.560000 19.730000
  0.000000  2.390000  4.380000  4.730000  9.290000 15.260000 15.560000 19.730000
         7         0         0         0
         7         2         0         0         0         0  0.000000         0         0         0  0.017000  0.017000
  0.000000  2.390000  4.380000  4.730000  9.290000 15.260000 15.560000 19.730000
  0.000000  2.390000  4.380000  4.730000  9.290000 15.260000 15.560000 19.730000
         7         0         0         0
         1         2         2         0         0         0  0.000000         0         0         0  0.017000  0.017000
  0.000000  2.390000  4.380000  4.730000  9.290000 15.260000 15.560000 19.730000
  0.000000  2.390000  4.380000  4.730000  9.290000 15.260000 15.560000 19.730000
         7         0         0         0
         2         2         3         0         0         0  0.000000         0         0         0  0.017000  0.017000
  0.000000  2.390000  4.380000  4.730000  9.290000 15.260000 15.560000 19.730000
  0.000000  2.390000  4.380000  4.730000  9.290000 15.260000 15.560000 19.730000
         7         0         0         0
         3         2         4         0         0         0  0.000000         0         0         0  0.017000  0.017000
  0.000000  2.390000  4.380000  4.730000  9.290000 15.260000 15.560000 19.730000
  0.000000  2.390000  4.380000  4.730000  9.290000 15.260000 15.560000 19.730000
         7         0         0         0
         4         2         5         0         0         0  0.000000         0         0         0  0.017000  0.017000
  0.000000  2.390000  4.380000  4.730000  9.290000 15.260000 15.560000 19.730000
  0.000000  2.390000  4.380000  4.730000  9.290000 15.260000 15.560000 19.730000
         7         0         0         0
         5         2         6         0         0         0  0.000000         0         0         0  0.017000  0.017000
  0.000000  2.390000  4.380000  4.730000  9.290000 15.260000 15.560000 19.730000
  0.000000  2.390000  4.380000  4.730000  9.290000 15.260000 15.560000 19.730000
         7         0         0         0
         6         2         7         0         0         0  0.000000         0         0         0  0.017000  0.017000
  0.000000  2.390000  4.380000  4.730000  9.290000 15.260000 15.560000 19.730000
  0.000000  2.390000  4.380000  4.730000  9.290000 15.260000 15.560000 19.730000
         7         0         0         0
         7         2         0         0         0         0  0.000000         0         0         0  0.017000  0.017000
  0.000000  2.390000  4.380000  4.730000  9.290000 15.260000 15.560000 19.730000
  0.000000  2.390000  4.380000  4.730000  9.290000 15.260000 15.560000 19.730000
         7         0         0         0