# MODFLOW2000 Drain Package
PARAMETER  0  0
       328        50  AUX IFACE
       328         0                      Stress Period 1
         1        46        51   124.838 1.200e-02         0
         1        47        51   124.835 1.800e-02         0
         1        48        51   124.832 6.000e-03         0
         1        48        52   124.830 2.400e-02         0
         1        49        52   124.824 1.800e-02         0
         1        49        53   124.822 6.000e-03         0
         1        50        53   124.818 2.400e-02         0
         1        51        53   124.814 1.200e-02         0
         1        51        54   124.811 6.000e-03         0
         1        52        54   124.807 2.400e-02         0
         1        53        54   124.803 6.000e-03         0
         1        53        55   124.800 1.200e-02         0
         1        54        55   124.796 1.800e-02         0
         1        55        55   124.792 6.000e-03         0
         1        55        56   124.790 1.800e-02         0
         1        56        56   124.785 1.800e-02         0
         1        57        56   124.782 6.000e-03         0
         1        57        57   124.779 2.400e-02         0
         1        58        57   124.774 1.800e-02         0
         1        58        58   124.771 6.000e-03         0
         1        59        58   124.768 2.400e-02         0
         1        60        58   124.763 1.200e-02         0
         1        60        59   124.760 6.000e-03         0
         1        61        59   124.757 1.800e-02         0
         1        62        59   124.752 1.200e-02         0
         1        62        60   124.750 1.200e-02         0
         1        63        60   124.745 1.800e-02         0
         1        64        60   124.742 6.000e-03         0
         1        64        61   124.739 1.800e-02         0
         1        65        61   124.734 1.800e-02         0
         1        66        61   124.731 6.000e-03         0
         1        66        62   124.728 2.400e-02         0
         1        67        62   124.723 1.800e-02         0
         1        67        63   124.720 6.000e-03         0
         1        68        63   124.717 1.800e-02         0
         1        69        63   124.713 1.800e-02         0
         1        69        64   124.710 6.000e-03         0
         1        70        64   124.706 1.800e-02         0
         1        71        64   124.702 1.200e-02         0
         1        71        65   124.699 1.200e-02         0
         1        72        65   124.695 1.800e-02         0
         1        73        65   124.691 6.000e-03         0
         1        73        66   124.688 1.800e-02         0
         1        74        66   124.684 1.800e-02         0
         1        75        66   124.680 6.000e-03         0
         1        75        67   124.678 1.800e-02         0
         1        76        67   124.673 1.800e-02         0
         1        76        68   124.670 6.000e-03         0
         1        77        68   124.667 1.800e-02         0
         1        78        68   124.662 1.800e-02         0
         1        78        69   124.659 6.000e-03         0
         1        79        69   124.655 1.800e-02         0
         1        80        69   124.651 1.200e-02         0
         1        80        70   124.648 1.200e-02         0
         1        81        70   124.644 1.800e-02         0
         1        82        70   124.641 6.000e-03         0
         1        82        71   124.638 1.200e-02         0
         1        83        71   124.633 2.400e-02         0
         1        84        71   124.630 6.000e-03         0
         1        84        72   124.627 1.800e-02         0
         1        85        72   124.622 1.800e-02         0
         1        85        73   124.619 6.000e-03         0
         1        86        73   124.616 1.800e-02         0
         1        87        73   124.611 1.800e-02         0
         1        87        74   124.608 6.000e-03         0
         1        88        74   124.605 1.800e-02         0
         1        89        74   124.601 1.200e-02         0
         1        89        75   124.598 6.000e-03         0
         1        90        75   124.594 2.400e-02         0
         1        91        75   124.590 6.000e-03         0
         1        91        76   124.587 1.200e-02         0
         1        92        76   124.585 6.000e-03         0
         1        93        76   124.585 6.000e-03         0
         1        93        77   124.584 1.200e-02         0
         1        94        77   124.584 2.400e-02         0
         1        95        77   124.584 6.000e-03         0
         1        95        78   124.584 1.800e-02         0
         1        96        78   124.584 1.800e-02         0
         1        96        79   124.583 6.000e-03         0
         1        97        79   124.583 1.800e-02         0
         1        98        79   124.583 1.200e-02         0
         1        98        80   124.583 1.200e-02         0
         1        99        80   124.583 1.800e-02         0
         1       100        80   124.582 6.000e-03         0
         1       100        81   124.582 1.200e-02         0
         1       101        81   124.582 2.400e-02         0
         1       102        81   124.582 6.000e-03         0
         1       102        82   124.582 1.800e-02         0
         1       103        82   124.581 2.400e-02         0
         1       103        83   124.581 6.000e-03         0
         1       104        83   124.581 1.800e-02         0
         1       105        83   124.581 1.800e-02         0
         1       105        84   124.580 6.000e-03         0
         1       106        84   124.580 1.800e-02         0
         1       107        84   124.580 1.200e-02         0
         1       107        85   124.580 6.000e-03         0
         1       108        85   124.580 2.400e-02         0
         1       109        85   124.579 6.000e-03         0
         1       109        86   124.579 1.200e-02         0
         1       110        86   124.579 2.400e-02         0
         1       111        86   124.579 6.000e-03         0
         1       111        87   124.579 1.800e-02         0
         1       112        87   124.578 1.800e-02         0
         1       112        88   124.578 6.000e-03         0
         1       113        88   124.578 1.800e-02         0
         1       114        88   124.578 1.200e-02         0
         1       114        89   124.578 1.200e-02         0
         1       115        89   124.577 1.800e-02         0
         1       116        89   124.577 1.200e-02         0
         1       116        90   124.577 6.000e-03         0
         1       117        90   124.577 2.400e-02         0
         1       118        90   124.576 6.000e-03         0
         1       118        91   124.576 1.200e-02         0
         1       119        91   124.576 2.400e-02         0
         1       120        91   124.576 6.000e-03         0
         1       120        92   124.576 1.800e-02         0
         1       121        92   124.575 1.800e-02         0
         1       121        93   124.575 6.000e-03         0
         1       122        93   124.575 1.800e-02         0
         1       123        93   124.575 1.200e-02         0
         1       123        94   124.575 6.000e-03         0
         1       124        94   124.574 2.400e-02         0
         1       125        94   124.574 6.000e-03         0
         1       125        95   124.574 6.000e-03         0
         1       126        95   124.573 2.400e-02         0
         1       127        95   124.573 6.000e-03         0
         1       127        96   124.573 1.200e-02         0
         1       128        96   124.572 2.400e-02         0
         1       129        96   124.572 6.000e-03         0
         1       129        97   124.571 1.800e-02         0
         1       130        97   124.570 1.800e-02         0
         1       130        98   124.570 6.000e-03         0
         1       131        98   124.570 1.800e-02         0
         1       132        98   124.569 1.800e-02         0
         1       132        99   124.569 6.000e-03         0
         1       133        99   124.568 2.400e-02         0
         1       134        99   124.568 1.200e-02         0
         1       134       100   124.567 6.000e-03         0
         1       135       100   124.567 2.400e-02         0
         1       136       100   124.566 6.000e-03         0
         1       136       101   124.566 1.200e-02         0
         1       137       101   124.565 1.800e-02         0
         1       138       101   124.565 6.000e-03         0
         1       138       102   124.564 1.800e-02         0
         1       139       102   124.564 1.800e-02         0
         1       140       102   124.563 6.000e-03         0
         1       140       103   124.563 2.400e-02         0
         1       141       103   124.562 1.800e-02         0
         1       141       104   124.562 6.000e-03         0
         1       142       104   124.562 2.400e-02         0
         1       143       104   124.561 1.200e-02         0
         1       143       105   124.561 6.000e-03         0
         1       144       105   124.560 1.800e-02         0
         1       145       105   124.559 1.200e-02         0
         1       145       106   124.559 1.200e-02         0
         1       146       106   124.559 1.800e-02         0
         1       147       106   124.558 6.000e-03         0
         1       147       107   124.558 1.800e-02         0
         1       148       107   124.557 1.800e-02         0
         1       149       107   124.557 6.000e-03         0
         1       149       108   124.556 1.800e-02         0
         1       150       108   124.556 1.800e-02         0
         1       150       109   124.555 6.000e-03         0
         1       151       109   124.555 1.800e-02         0
         1       152       109   124.554 1.800e-02         0
         1       152       110   124.554 6.000e-03         0
         1       153       110   124.553 1.800e-02         0
         1       154       110   124.553 1.200e-02         0
         1       154       111   124.552 1.200e-02         0
         1       155       111   124.552 6.000e-03         0
         1       156       111   124.542 1.800e-02         0
         1       157       111   124.533 1.800e-02         0
         1       158       111   124.524 1.800e-02         0
         1       159       111   124.514 1.800e-02         0
         1       160       111   124.505 1.800e-02         0
         1       161       111   124.496 1.800e-02         0
         1       162       111   124.487 1.800e-02         0
         1       163       111   124.478 1.800e-02         0
         1       164       111   124.469 1.800e-02         0
         1       165       111   124.464 6.000e-03         0
         1       166       111   124.461 1.200e-02         0
         1       166       112   124.460 6.000e-03         0
         1       167       112   124.459 1.800e-02         0
         1       168       112   124.457 1.800e-02         0
         1       168       113   124.456 6.000e-03         0
         1       169       113   124.455 1.800e-02         0
         1       170       113   124.453 1.800e-02         0
         1       170       114   124.452 6.000e-03         0
         1       171       114   124.451 2.400e-02         0
         1       172       114   124.449 1.200e-02         0
         1       172       115   124.448 6.000e-03         0
         1       173       115   124.447 1.800e-02         0
         1       174       115   124.445 1.800e-02         0
         1       174       116   124.444 6.000e-03         0
         1       175       116   124.443 1.800e-02         0
         1       176       116   124.441 1.800e-02         0
         1       176       117   124.440 6.000e-03         0
         1       177       117   124.439 2.400e-02         0
         1       178       117   124.437 1.800e-02         0
         1       179       117   124.436 6.000e-03         0
         1       179       118   124.435 1.800e-02         0
         1       180       118   124.433 2.400e-02         0
         1       181       118   124.432 6.000e-03         0
         1       181       119   124.431 1.800e-02         0
         1       182       119   124.429 1.800e-02         0
         1       183       119   124.428 6.000e-03         0
         1       183       120   124.427 1.800e-02         0
         1       184       120   124.426 1.800e-02         0
         1       185       120   124.424 6.000e-03         0
         1       185       121   124.423 1.200e-02         0
         1       186       121   124.422 2.400e-02         0
         1       187       121   124.420 6.000e-03         0
         1       187       122   124.419 1.200e-02         0
         1       188       122   124.418 1.800e-02         0
         1       189       122   124.416 1.200e-02         0
         1       189       123   124.415 1.200e-02         0
         1       190       123   124.414 1.800e-02         0
         1       191       123   124.412 1.200e-02         0
         1       191       124   124.411 6.000e-03         0
         1       192       124   124.410 2.400e-02         0
         1       193       124   124.408 6.000e-03         0
         1       193       125   124.407 1.200e-02         0
         1       194       125   124.406 1.800e-02         0
         1       195       125   124.404 1.200e-02         0
         1       195       126   124.403 1.200e-02         0
         1       196       126   124.402 1.800e-02         0
         1       197       126   124.400 1.200e-02         0
         1       197       127   124.399 6.000e-03         0
         1       198       127   124.398 2.400e-02         0
         1       199       127   124.396 1.200e-02         0
         1       199       128   124.395 6.000e-03         0
         1       200       128   124.394 1.800e-02         0
         1       201       128   124.392 1.800e-02         0
         1       201       129   124.391 6.000e-03         0
         1       202       129   124.390 1.800e-02         0
         1       203       129   124.388 1.800e-02         0
         1       203       130   124.387 6.000e-03         0
         1       204       130   124.386 2.400e-02         0
         1       205       130   124.385 6.000e-03         0
         1       205       131   124.382 6.000e-03         0
         1       206       131   124.380 1.800e-02         0
         1       207       131   124.378 2.400e-02         0
         1       208       131   124.376 6.000e-03         0
         1       208       132   124.374 1.200e-02         0
         1       209       132   124.372 1.800e-02         0
         1       210       132   124.369 1.200e-02         0
         1       210       133   124.368 6.000e-03         0
         1       211       133   124.366 2.400e-02         0
         1       212       133   124.363 1.800e-02         0
         1       213       133   124.362 6.000e-03         0
         1       213       134   124.360 1.800e-02         0
         1       214       134   124.357 1.800e-02         0
         1       215       134   124.355 1.200e-02         0
         1       215       135   124.354 1.200e-02         0
         1       216       135   124.352 1.800e-02         0
         1       217       135   124.349 1.200e-02         0
         1       217       136   124.348 6.000e-03         0
         1       218       136   124.346 1.800e-02         0
         1       219       136   124.343 2.400e-02         0
         1       220       136   124.341 6.000e-03         0
         1       220       137   124.340 1.800e-02         0
         1       221       137   124.337 1.800e-02         0
         1       222       137   124.335 1.200e-02         0
         1       222       138   124.334 6.000e-03         0
         1       223       138   124.332 2.400e-02         0
         1       224       138   124.329 1.200e-02         0
         1       224       139   124.328 6.000e-03         0
         1       225       139   124.326 1.800e-02         0
         1       226       139   124.323 2.400e-02         0
         1       227       139   124.321 6.000e-03         0
         1       227       140   124.320 1.800e-02         0
         1       228       140   124.317 1.800e-02         0
         1       229       140   124.315 1.200e-02         0
         1       229       141   124.314 6.000e-03         0
         1       230       141   124.311 2.400e-02         0
         1       231       141   124.309 1.200e-02         0
         1       231       142   124.307 6.000e-03         0
         1       232       142   124.306 1.800e-02         0
         1       233       142   124.303 1.800e-02         0
         1       234       142   124.300 6.000e-03         0
         1       234       143   124.296 1.800e-02         0
         1       235       143   124.288 1.800e-02         0
         1       236       143   124.282 1.200e-02         0
         1       236       144   124.278 1.200e-02         0
         1       237       144   124.271 1.800e-02         0
         1       238       144   124.264 1.800e-02         0
         1       238       145   124.259 6.000e-03         0
         1       239       145   124.254 2.400e-02         0
         1       240       145   124.246 1.800e-02         0
         1       241       145   124.241 6.000e-03         0
         1       241       146   124.237 1.800e-02         0
         1       242       146   124.229 1.800e-02         0
         1       243       146   124.223 1.200e-02         0
         1       243       147   124.219 1.200e-02         0
         1       244       147   124.212 1.800e-02         0
         1       245       147   124.205 1.200e-02         0
         1       245       148   124.200 6.000e-03         0
         1       246       148   124.195 1.800e-02         0
         1       247       148   124.187 2.400e-02         0
         1       248       148   124.182 6.000e-03         0
         1       248       149   124.178 1.800e-02         0
         1       249       149   124.170 1.800e-02         0
         1       250       149   124.164 1.200e-02         0
         1       250       150   124.159 6.000e-03         0
         1       251       150   124.153 2.400e-02         0
         1       252       150   124.145 1.200e-02         0
         1       252       151   124.141 6.000e-03         0
         1       253       151   124.136 1.800e-02         0
         1       254       151   124.128 1.800e-02         0
         1       255       151   124.123 6.000e-03         0
         1       255       152   124.119 1.800e-02         0
         1       256       152   124.111 1.800e-02         0
         1       257       152   124.104 6.000e-03         0
         1       257       153   124.100 1.200e-02         0
         1       258       153   124.094 2.400e-02         0
         1       259       153   124.086 1.200e-02         0
         1       259       154   124.082 6.000e-03         0
         1       260       154   124.077 1.800e-02         0
         1       261       154   124.068 1.800e-02         0
         1       262       154   124.064 6.000e-03         0
         1       262       155   124.059 1.800e-02         0
         1       263       155   124.051 1.800e-02         0
         1       264       155   124.045 6.000e-03         0
         1       264       156   124.041 1.200e-02         0
         1       265       156   124.035 1.800e-02         0
         1       266       156   124.027 1.800e-02         0
         1       266       157   124.023 6.000e-03         0
         1       267       157   124.021 6.000e-03         0
