# SFR Package for MODFLOW2000
 -328  7  0  0  1.000000e+00  1.000000e-04  50  54 1 10 1 30
  1  46  51  1  1  2.000000  124.837925  0.001590  0.500000  0.001000
  1  47  51  1  2  3.000000  124.835267  0.001590  0.500000  0.001000
  1  48  51  1  3  1.000000  124.832472  0.001590  0.500000  0.001000
  1  48  52  1  4  4.000000  124.829516  0.001590  0.500000  0.001000
  1  49  52  1  5  3.000000  124.824446  0.001590  0.500000  0.001000
  1  49  53  1  6  1.000000  124.821639  0.001590  0.500000  0.001000
  1  50  53  1  7  4.000000  124.818274  0.001590  0.500000  0.001000
  1  51  53  1  8  2.000000  124.813762  0.001590  0.500000  0.001000
  1  51  54  1  9  1.000000  124.810955  0.001590  0.500000  0.001000
  1  52  54  1  10  4.000000  124.807045  0.001590  0.500000  0.001000
  1  53  54  1  11  1.000000  124.803078  0.001590  0.500000  0.001000
  1  53  55  1  12  2.000000  124.800271  0.001590  0.500000  0.001000
  1  54  55  1  13  3.000000  124.795816  0.001590  0.500000  0.001000
  1  55  55  1  14  1.000000  124.792394  0.001590  0.500000  0.001000
  1  55  56  1  15  3.000000  124.789586  0.001590  0.500000  0.001000
  1  56  56  1  16  3.000000  124.784587  0.001590  0.500000  0.001000
  1  57  56  1  17  1.000000  124.781709  0.001590  0.500000  0.001000
  1  57  57  1  18  4.000000  124.778902  0.001590  0.500000  0.001000
  1  58  57  1  19  3.000000  124.773832  0.001590  0.500000  0.001000
  1  58  58  1  20  1.000000  124.771025  0.001590  0.500000  0.001000
  1  59  58  1  21  4.000000  124.767743  0.001590  0.500000  0.001000
  1  60  58  1  22  2.000000  124.763148  0.001590  0.500000  0.001000
  1  60  59  1  23  1.000000  124.760341  0.001590  0.500000  0.001000
  1  61  59  1  24  3.000000  124.756514  0.001590  0.500000  0.001000
  1  62  59  1  25  2.000000  124.752464  0.001590  0.500000  0.001000
  1  62  60  1  26  2.000000  124.749657  0.001590  0.500000  0.001000
  1  63  60  1  27  3.000000  124.745285  0.001590  0.500000  0.001000
  1  64  60  1  28  1.000000  124.741780  0.001590  0.500000  0.001000
  1  64  61  1  29  3.000000  124.738972  0.001590  0.500000  0.001000
  1  65  61  1  30  3.000000  124.734056  0.001590  0.500000  0.001000
  1  66  61  1  31  1.000000  124.731095  0.001590  0.500000  0.001000
  1  66  62  1  32  4.000000  124.728288  0.001590  0.500000  0.001000
  1  67  62  1  33  3.000000  124.723218  0.001590  0.500000  0.001000
  1  67  63  1  34  1.000000  124.720411  0.001590  0.500000  0.001000
  1  68  63  1  35  3.000000  124.717212  0.001590  0.500000  0.001000
  1  69  63  1  36  3.000000  124.712534  0.001590  0.500000  0.001000
  1  69  64  1  37  1.000000  124.709727  0.001590  0.500000  0.001000
  1  70  64  1  38  3.000000  124.705983  0.001590  0.500000  0.001000
  1  71  64  1  39  2.000000  124.701850  0.001590  0.500000  0.001000
  1  71  65  1  40  2.000000  124.699043  0.001590  0.500000  0.001000
  1  72  65  1  41  3.000000  124.694754  0.001590  0.500000  0.001000
  1  73  65  1  42  1.000000  124.691166  0.001590  0.500000  0.001000
  1  73  66  1  43  3.000000  124.688358  0.001590  0.500000  0.001000
  1  74  66  1  44  3.000000  124.683525  0.001590  0.500000  0.001000
  1  75  66  1  45  1.000000  124.680481  0.001590  0.500000  0.001000
  1  75  67  1  46  3.000000  124.677674  0.001590  0.500000  0.001000
  1  76  67  1  47  3.000000  124.672604  0.001590  0.500000  0.001000
  1  76  68  1  48  1.000000  124.669797  0.001590  0.500000  0.001000
  1  77  68  1  49  3.000000  124.666681  0.001590  0.500000  0.001000
  1  78  68  1  50  3.000000  124.661920  0.001590  0.500000  0.001000
  1  78  69  1  51  1.000000  124.659113  0.001590  0.500000  0.001000
  1  79  69  1  52  3.000000  124.655452  0.001590  0.500000  0.001000
  1  80  69  1  53  2.000000  124.651236  0.001590  0.500000  0.001000
  1  80  70  1  54  2.000000  124.648429  0.001590  0.500000  0.001000
  1  81  70  1  55  3.000000  124.644223  0.001590  0.500000  0.001000
  1  82  70  1  56  1.000000  124.640552  0.001590  0.500000  0.001000
  1  82  71  1  57  2.000000  124.637744  0.001590  0.500000  0.001000
  1  83  71  1  58  4.000000  124.632994  0.001590  0.500000  0.001000
  1  84  71  1  59  1.000000  124.629867  0.001590  0.500000  0.001000
  1  84  72  1  60  3.000000  124.627060  0.001590  0.500000  0.001000
  1  85  72  1  61  3.000000  124.621990  0.001590  0.500000  0.001000
  1  85  73  1  62  1.000000  124.619183  0.001590  0.500000  0.001000
  1  86  73  1  63  3.000000  124.616150  0.001590  0.500000  0.001000
  1  87  73  1  64  3.000000  124.611306  0.001590  0.500000  0.001000
  1  87  74  1  65  1.000000  124.608499  0.001590  0.500000  0.001000
  1  88  74  1  66  3.000000  124.604921  0.001590  0.500000  0.001000
  1  89  74  1  67  2.000000  124.600622  0.001590  0.500000  0.001000
  1  89  75  1  68  1.000000  124.597815  0.001590  0.500000  0.001000
  1  90  75  1  69  4.000000  124.593692  0.001590  0.500000  0.001000
  1  91  75  1  70  1.000000  124.589938  0.001590  0.500000  0.001000
  1  91  76  1  71  2.000000  124.587130  0.001590  0.500000  0.001000
  1  92  76  1  72  1.000000  124.585135  0.001590  0.500000  0.001000
  1  93  76  2  1  1.000000  124.584641  0.000090  0.500000  0.001000
  1  93  77  2  2  2.000000  124.584477  0.000090  0.500000  0.001000
  1  94  77  2  3  4.000000  124.584187  0.000090  0.500000  0.001000
  1  95  77  2  4  1.000000  124.584022  0.000090  0.500000  0.001000
  1  95  78  2  5  3.000000  124.583858  0.000090  0.500000  0.001000
  1  96  78  2  6  3.000000  124.583566  0.000090  0.500000  0.001000
  1  96  79  2  7  1.000000  124.583402  0.000090  0.500000  0.001000
  1  97  79  2  8  3.000000  124.583206  0.000090  0.500000  0.001000
  1  98  79  2  9  2.000000  124.582947  0.000090  0.500000  0.001000
  1  98  80  2  10  2.000000  124.582783  0.000090  0.500000  0.001000
  1  99  80  2  11  3.000000  124.582553  0.000090  0.500000  0.001000
  1  100  80  2  12  1.000000  124.582328  0.000090  0.500000  0.001000
  1  100  81  2  13  2.000000  124.582164  0.000090  0.500000  0.001000
  1  101  81  2  14  4.000000  124.581899  0.000090  0.500000  0.001000
  1  102  81  2  15  1.000000  124.581709  0.000090  0.500000  0.001000
  1  102  82  2  16  3.000000  124.581545  0.000090  0.500000  0.001000
  1  103  82  2  17  4.000000  124.581253  0.000090  0.500000  0.001000
  1  103  83  2  18  1.000000  124.581090  0.000090  0.500000  0.001000
  1  104  83  2  19  3.000000  124.580918  0.000090  0.500000  0.001000
  1  105  83  2  20  3.000000  124.580634  0.000090  0.500000  0.001000
  1  105  84  2  21  1.000000  124.580471  0.000090  0.500000  0.001000
  1  106  84  2  22  3.000000  124.580265  0.000090  0.500000  0.001000
  1  107  84  2  23  2.000000  124.580015  0.000090  0.500000  0.001000
  1  107  85  2  24  1.000000  124.579852  0.000090  0.500000  0.001000
  1  108  85  2  25  4.000000  124.579611  0.000090  0.500000  0.001000
  1  109  85  2  26  1.000000  124.579396  0.000090  0.500000  0.001000
  1  109  86  2  27  2.000000  124.579232  0.000090  0.500000  0.001000
  1  110  86  2  28  4.000000  124.578957  0.000090  0.500000  0.001000
  1  111  86  2  29  1.000000  124.578777  0.000090  0.500000  0.001000
  1  111  87  2  30  3.000000  124.578613  0.000090  0.500000  0.001000
  1  112  87  2  31  3.000000  124.578321  0.000090  0.500000  0.001000
  1  112  88  2  32  1.000000  124.578158  0.000090  0.500000  0.001000
  1  113  88  2  33  3.000000  124.577976  0.000090  0.500000  0.001000
  1  114  88  2  34  2.000000  124.577702  0.000090  0.500000  0.001000
  1  114  89  2  35  2.000000  124.577539  0.000090  0.500000  0.001000
  1  115  89  2  36  3.000000  124.577323  0.000090  0.500000  0.001000
  1  116  89  2  37  2.000000  124.577083  0.000090  0.500000  0.001000
  1  116  90  2  38  1.000000  124.576920  0.000090  0.500000  0.001000
  1  117  90  2  39  4.000000  124.576669  0.000090  0.500000  0.001000
  1  118  90  2  40  1.000000  124.576464  0.000090  0.500000  0.001000
  1  118  91  2  41  2.000000  124.576301  0.000090  0.500000  0.001000
  1  119  91  2  42  4.000000  124.576015  0.000090  0.500000  0.001000
  1  120  91  2  43  1.000000  124.575845  0.000090  0.500000  0.001000
  1  120  92  2  44  3.000000  124.575682  0.000090  0.500000  0.001000
  1  121  92  2  45  3.000000  124.575389  0.000090  0.500000  0.001000
  1  121  93  2  46  1.000000  124.575226  0.000090  0.500000  0.001000
  1  122  93  2  47  3.000000  124.575035  0.000090  0.500000  0.001000
  1  123  93  2  48  2.000000  124.574770  0.000090  0.500000  0.001000
  1  123  94  2  49  1.000000  124.574607  0.000090  0.500000  0.001000
  1  124  94  2  50  4.000000  124.574381  0.000090  0.500000  0.001000
  1  125  94  2  51  1.000000  124.574151  0.000090  0.500000  0.001000
  1  125  95  2  52  1.000000  124.574042  0.000090  0.500000  0.001000
  1  126  95  3  1  4.000000  124.573433  0.000220  0.500000  0.001000
  1  127  95  3  2  1.000000  124.572952  0.000220  0.500000  0.001000
  1  127  96  3  3  2.000000  124.572580  0.000220  0.500000  0.001000
  1  128  96  3  4  4.000000  124.571945  0.000220  0.500000  0.001000
  1  129  96  3  5  1.000000  124.571532  0.000220  0.500000  0.001000
  1  129  97  3  6  3.000000  124.571160  0.000220  0.500000  0.001000
  1  130  97  3  7  3.000000  124.570483  0.000220  0.500000  0.001000
  1  130  98  3  8  1.000000  124.570112  0.000220  0.500000  0.001000
  1  131  98  3  9  3.000000  124.569715  0.000220  0.500000  0.001000
  1  132  98  3  10  3.000000  124.569063  0.000220  0.500000  0.001000
  1  132  99  3  11  1.000000  124.568691  0.000220  0.500000  0.001000
  1  133  99  3  12  4.000000  124.568228  0.000220  0.500000  0.001000
  1  134  99  3  13  2.000000  124.567643  0.000220  0.500000  0.001000
  1  134  100  3  14  1.000000  124.567271  0.000220  0.500000  0.001000
  1  135  100  3  15  4.000000  124.566741  0.000220  0.500000  0.001000
  1  136  100  3  16  1.000000  124.566223  0.000220  0.500000  0.001000
  1  136  101  3  17  2.000000  124.565851  0.000220  0.500000  0.001000
  1  137  101  3  18  3.000000  124.565254  0.000220  0.500000  0.001000
  1  138  101  3  19  1.000000  124.564803  0.000220  0.500000  0.001000
  1  138  102  3  20  3.000000  124.564431  0.000220  0.500000  0.001000
  1  139  102  3  21  3.000000  124.563767  0.000220  0.500000  0.001000
  1  140  102  3  22  1.000000  124.563382  0.000220  0.500000  0.001000
  1  140  103  3  23  4.000000  124.563011  0.000220  0.500000  0.001000
  1  141  103  3  24  3.000000  124.562334  0.000220  0.500000  0.001000
  1  141  104  3  25  1.000000  124.561962  0.000220  0.500000  0.001000
  1  142  104  3  26  4.000000  124.561536  0.000220  0.500000  0.001000
  1  143  104  3  27  2.000000  124.560914  0.000220  0.500000  0.001000
  1  143  105  3  28  1.000000  124.560542  0.000220  0.500000  0.001000
  1  144  105  3  29  3.000000  124.560049  0.000220  0.500000  0.001000
  1  145  105  3  30  2.000000  124.559494  0.000220  0.500000  0.001000
  1  145  106  3  31  2.000000  124.559122  0.000220  0.500000  0.001000
  1  146  106  3  32  3.000000  124.558562  0.000220  0.500000  0.001000
  1  147  106  3  33  1.000000  124.558073  0.000220  0.500000  0.001000
  1  147  107  3  34  3.000000  124.557702  0.000220  0.500000  0.001000
  1  148  107  3  35  3.000000  124.557075  0.000220  0.500000  0.001000
  1  149  107  3  36  1.000000  124.556653  0.000220  0.500000  0.001000
  1  149  108  3  37  3.000000  124.556281  0.000220  0.500000  0.001000
  1  150  108  3  38  3.000000  124.555605  0.000220  0.500000  0.001000
  1  150  109  3  39  1.000000  124.555233  0.000220  0.500000  0.001000
  1  151  109  3  40  3.000000  124.554845  0.000220  0.500000  0.001000
  1  152  109  3  41  3.000000  124.554185  0.000220  0.500000  0.001000
  1  152  110  3  42  1.000000  124.553813  0.000220  0.500000  0.001000
  1  153  110  3  43  3.000000  124.553357  0.000220  0.500000  0.001000
  1  154  110  3  44  2.000000  124.552764  0.000220  0.500000  0.001000
  1  154  111  3  45  2.000000  124.552393  0.000220  0.500000  0.001000
  1  155  111  3  46  1.000000  124.552121  0.000220  0.500000  0.001000
  1  156  111  4  1  3.000000  124.541778  0.003040  0.500000  0.001000
  1  157  111  4  2  3.000000  124.532663  0.003040  0.500000  0.001000
  1  158  111  4  3  3.000000  124.523548  0.003040  0.500000  0.001000
  1  159  111  4  4  3.000000  124.514433  0.003040  0.500000  0.001000
  1  160  111  4  5  3.000000  124.505318  0.003040  0.500000  0.001000
  1  161  111  4  6  3.000000  124.496203  0.003040  0.500000  0.001000
  1  162  111  4  7  3.000000  124.487088  0.003040  0.500000  0.001000
  1  163  111  4  8  3.000000  124.477973  0.003040  0.500000  0.001000
  1  164  111  4  9  3.000000  124.468858  0.003040  0.500000  0.001000
  1  165  111  4  10  1.000000  124.464150  0.003040  0.500000  0.001000
  1  166  111  5  1  2.000000  124.461475  0.000590  0.500000  0.001000
  1  166  112  5  2  1.000000  124.460489  0.000590  0.500000  0.001000
  1  167  112  5  3  3.000000  124.459068  0.000590  0.500000  0.001000
  1  168  112  5  4  3.000000  124.457458  0.000590  0.500000  0.001000
  1  168  113  5  5  1.000000  124.456472  0.000590  0.500000  0.001000
  1  169  113  5  6  3.000000  124.455124  0.000590  0.500000  0.001000
  1  170  113  5  7  3.000000  124.453442  0.000590  0.500000  0.001000
  1  170  114  5  8  1.000000  124.452455  0.000590  0.500000  0.001000
  1  171  114  5  9  4.000000  124.451180  0.000590  0.500000  0.001000
  1  172  114  5  10  2.000000  124.449425  0.000590  0.500000  0.001000
  1  172  115  5  11  1.000000  124.448439  0.000590  0.500000  0.001000
  1  173  115  5  12  3.000000  124.447236  0.000590  0.500000  0.001000
  1  174  115  5  13  3.000000  124.445408  0.000590  0.500000  0.001000
  1  174  116  5  14  1.000000  124.444422  0.000590  0.500000  0.001000
  1  175  116  5  15  3.000000  124.443291  0.000590  0.500000  0.001000
  1  176  116  5  16  3.000000  124.441391  0.000590  0.500000  0.001000
  1  176  117  5  17  1.000000  124.440405  0.000590  0.500000  0.001000
  1  177  117  5  18  4.000000  124.439347  0.000590  0.500000  0.001000
  1  178  117  5  19  3.000000  124.437375  0.000590  0.500000  0.001000
  1  179  117  5  20  1.000000  124.436388  0.000590  0.500000  0.001000
  1  179  118  5  21  3.000000  124.435402  0.000590  0.500000  0.001000
  1  180  118  5  22  4.000000  124.433431  0.000590  0.500000  0.001000
  1  181  118  5  23  1.000000  124.432372  0.000590  0.500000  0.001000
  1  181  119  5  24  3.000000  124.431386  0.000590  0.500000  0.001000
  1  182  119  5  25  3.000000  124.429487  0.000590  0.500000  0.001000
  1  183  119  5  26  1.000000  124.428355  0.000590  0.500000  0.001000
  1  183  120  5  27  3.000000  124.427369  0.000590  0.500000  0.001000
  1  184  120  5  28  3.000000  124.425543  0.000590  0.500000  0.001000
  1  185  120  5  29  1.000000  124.424338  0.000590  0.500000  0.001000
  1  185  121  5  30  2.000000  124.423352  0.000590  0.500000  0.001000
  1  186  121  5  31  4.000000  124.421599  0.000590  0.500000  0.001000
  1  187  121  5  32  1.000000  124.420321  0.000590  0.500000  0.001000
  1  187  122  5  33  2.000000  124.419335  0.000590  0.500000  0.001000
  1  188  122  5  34  3.000000  124.417655  0.000590  0.500000  0.001000
  1  189  122  5  35  2.000000  124.416305  0.000590  0.500000  0.001000
  1  189  123  5  36  2.000000  124.415319  0.000590  0.500000  0.001000
  1  190  123  5  37  3.000000  124.413711  0.000590  0.500000  0.001000
  1  191  123  5  38  2.000000  124.412288  0.000590  0.500000  0.001000
  1  191  124  5  39  1.000000  124.411302  0.000590  0.500000  0.001000
  1  192  124  5  40  4.000000  124.409767  0.000590  0.500000  0.001000
  1  193  124  5  41  1.000000  124.408271  0.000590  0.500000  0.001000
  1  193  125  5  42  2.000000  124.407285  0.000590  0.500000  0.001000
  1  194  125  5  43  3.000000  124.405823  0.000590  0.500000  0.001000
  1  195  125  5  44  2.000000  124.404254  0.000590  0.500000  0.001000
  1  195  126  5  45  2.000000  124.403268  0.000590  0.500000  0.001000
  1  196  126  5  46  3.000000  124.401879  0.000590  0.500000  0.001000
  1  197  126  5  47  2.000000  124.400238  0.000590  0.500000  0.001000
  1  197  127  5  48  1.000000  124.399252  0.000590  0.500000  0.001000
  1  198  127  5  49  4.000000  124.397935  0.000590  0.500000  0.001000
  1  199  127  5  50  2.000000  124.396221  0.000590  0.500000  0.001000
  1  199  128  5  51  1.000000  124.395235  0.000590  0.500000  0.001000
  1  200  128  5  52  3.000000  124.393991  0.000590  0.500000  0.001000
  1  201  128  5  53  3.000000  124.392204  0.000590  0.500000  0.001000
  1  201  129  5  54  1.000000  124.391218  0.000590  0.500000  0.001000
  1  202  129  5  55  3.000000  124.390047  0.000590  0.500000  0.001000
  1  203  129  5  56  3.000000  124.388187  0.000590  0.500000  0.001000
  1  203  130  5  57  1.000000  124.387201  0.000590  0.500000  0.001000
  1  204  130  5  58  4.000000  124.386103  0.000590  0.500000  0.001000
  1  205  130  5  59  1.000000  124.385058  0.000590  0.500000  0.001000
  1  205  131  6  1  1.000000  124.381885  0.000880  0.500000  0.001000
  1  206  131  6  2  3.000000  124.380405  0.000880  0.500000  0.001000
  1  207  131  6  3  4.000000  124.377531  0.000880  0.500000  0.001000
  1  208  131  6  4  1.000000  124.375628  0.000880  0.500000  0.001000
  1  208  132  6  5  2.000000  124.374191  0.000880  0.500000  0.001000
  1  209  132  6  6  3.000000  124.371784  0.000880  0.500000  0.001000
  1  210  132  6  7  2.000000  124.369371  0.000880  0.500000  0.001000
  1  210  133  6  8  1.000000  124.367934  0.000880  0.500000  0.001000
  1  211  133  6  9  4.000000  124.366036  0.000880  0.500000  0.001000
  1  212  133  6  10  3.000000  124.363163  0.000880  0.500000  0.001000
  1  213  133  6  11  1.000000  124.361677  0.000880  0.500000  0.001000
  1  213  134  6  12  3.000000  124.360240  0.000880  0.500000  0.001000
  1  214  134  6  13  3.000000  124.357416  0.000880  0.500000  0.001000
  1  215  134  6  14  2.000000  124.355420  0.000880  0.500000  0.001000
  1  215  135  6  15  2.000000  124.353983  0.000880  0.500000  0.001000
  1  216  135  6  16  3.000000  124.351668  0.000880  0.500000  0.001000
  1  217  135  6  17  2.000000  124.349162  0.000880  0.500000  0.001000
  1  217  136  6  18  1.000000  124.347726  0.000880  0.500000  0.001000
  1  218  136  6  19  3.000000  124.345921  0.000880  0.500000  0.001000
  1  219  136  6  20  4.000000  124.343047  0.000880  0.500000  0.001000
  1  220  136  6  21  1.000000  124.341468  0.000880  0.500000  0.001000
  1  220  137  6  22  3.000000  124.340032  0.000880  0.500000  0.001000
  1  221  137  6  23  3.000000  124.337300  0.000880  0.500000  0.001000
  1  222  137  6  24  2.000000  124.335211  0.000880  0.500000  0.001000
  1  222  138  6  25  1.000000  124.333774  0.000880  0.500000  0.001000
  1  223  138  6  26  4.000000  124.331553  0.000880  0.500000  0.001000
  1  224  138  6  27  2.000000  124.328954  0.000880  0.500000  0.001000
  1  224  139  6  28  1.000000  124.327517  0.000880  0.500000  0.001000
  1  225  139  6  29  3.000000  124.325805  0.000880  0.500000  0.001000
  1  226  139  6  30  4.000000  124.322932  0.000880  0.500000  0.001000
  1  227  139  6  31  1.000000  124.321260  0.000880  0.500000  0.001000
  1  227  140  6  32  3.000000  124.319823  0.000880  0.500000  0.001000
  1  228  140  6  33  3.000000  124.317184  0.000880  0.500000  0.001000
  1  229  140  6  34  2.000000  124.315003  0.000880  0.500000  0.001000
  1  229  141  6  35  1.000000  124.313566  0.000880  0.500000  0.001000
  1  230  141  6  36  4.000000  124.311437  0.000880  0.500000  0.001000
  1  231  141  6  37  2.000000  124.308746  0.000880  0.500000  0.001000
  1  231  142  6  38  1.000000  124.307309  0.000880  0.500000  0.001000
  1  232  142  6  39  3.000000  124.305690  0.000880  0.500000  0.001000
  1  233  142  6  40  3.000000  124.303126  0.000880  0.500000  0.001000
  1  234  142  7  1  1.000000  124.300342  0.002590  0.500000  0.001000
  1  234  143  7  2  3.000000  124.296115  0.002590  0.500000  0.001000
  1  235  143  7  3  3.000000  124.288160  0.002590  0.500000  0.001000
  1  236  143  7  4  2.000000  124.282023  0.002590  0.500000  0.001000
  1  236  144  7  5  2.000000  124.277796  0.002590  0.500000  0.001000
  1  237  144  7  6  3.000000  124.271250  0.002590  0.500000  0.001000
  1  238  144  7  7  3.000000  124.263704  0.002590  0.500000  0.001000
  1  238  145  7  8  1.000000  124.259477  0.002590  0.500000  0.001000
  1  239  145  7  9  4.000000  124.254340  0.002590  0.500000  0.001000
  1  240  145  7  10  3.000000  124.245886  0.002590  0.500000  0.001000
  1  241  145  7  11  1.000000  124.241158  0.002590  0.500000  0.001000
  1  241  146  7  12  3.000000  124.236931  0.002590  0.500000  0.001000
  1  242  146  7  13  3.000000  124.228976  0.002590  0.500000  0.001000
  1  243  146  7  14  2.000000  124.222839  0.002590  0.500000  0.001000
  1  243  147  7  15  2.000000  124.218612  0.002590  0.500000  0.001000
  1  244  147  7  16  3.000000  124.212066  0.002590  0.500000  0.001000
  1  245  147  7  17  2.000000  124.204520  0.002590  0.500000  0.001000
  1  245  148  7  18  1.000000  124.200293  0.002590  0.500000  0.001000
  1  246  148  7  19  3.000000  124.195156  0.002590  0.500000  0.001000
  1  247  148  7  20  4.000000  124.186701  0.002590  0.500000  0.001000
  1  248  148  7  21  1.000000  124.181974  0.002590  0.500000  0.001000
  1  248  149  7  22  3.000000  124.177746  0.002590  0.500000  0.001000
  1  249  149  7  23  3.000000  124.169792  0.002590  0.500000  0.001000
  1  250  149  7  24  2.000000  124.163655  0.002590  0.500000  0.001000
  1  250  150  7  25  1.000000  124.159427  0.002590  0.500000  0.001000
  1  251  150  7  26  4.000000  124.152882  0.002590  0.500000  0.001000
  1  252  150  7  27  2.000000  124.145336  0.002590  0.500000  0.001000
  1  252  151  7  28  1.000000  124.141109  0.002590  0.500000  0.001000
  1  253  151  7  29  3.000000  124.135972  0.002590  0.500000  0.001000
  1  254  151  7  30  3.000000  124.127517  0.002590  0.500000  0.001000
  1  255  151  7  31  1.000000  124.122790  0.002590  0.500000  0.001000
  1  255  152  7  32  3.000000  124.118562  0.002590  0.500000  0.001000
  1  256  152  7  33  3.000000  124.110607  0.002590  0.500000  0.001000
  1  257  152  7  34  1.000000  124.104471  0.002590  0.500000  0.001000
  1  257  153  7  35  2.000000  124.100243  0.002590  0.500000  0.001000
  1  258  153  7  36  4.000000  124.093698  0.002590  0.500000  0.001000
  1  259  153  7  37  2.000000  124.086152  0.002590  0.500000  0.001000
  1  259  154  7  38  1.000000  124.081924  0.002590  0.500000  0.001000
  1  260  154  7  39  3.000000  124.076788  0.002590  0.500000  0.001000
  1  261  154  7  40  3.000000  124.068333  0.002590  0.500000  0.001000
  1  262  154  7  41  1.000000  124.063605  0.002590  0.500000  0.001000
  1  262  155  7  42  3.000000  124.059378  0.002590  0.500000  0.001000
  1  263  155  7  43  3.000000  124.051423  0.002590  0.500000  0.001000
  1  264  155  7  44  1.000000  124.045287  0.002590  0.500000  0.001000
  1  264  156  7  45  2.000000  124.041059  0.002590  0.500000  0.001000
  1  265  156  7  46  3.000000  124.034513  0.002590  0.500000  0.001000
  1  266  156  7  47  3.000000  124.026968  0.002590  0.500000  0.001000
  1  266  157  7  48  1.000000  124.022740  0.002590  0.500000  0.001000
  1  267  157  7  49  1.000000  124.021416  0.002590  0.500000  0.001000
  7  0  0  0
  1  1  2  0  0.000000e+00  0.000000e+00  0.000000e+00  0.000000e+00  0.029000
  3.000000
  3.000000
  2  1  3  0  0.000000e+00  0.000000e+00  0.000000e+00  0.000000e+00  0.029000
  3.000000
  3.000000
  3  1  4  0  0.000000e+00  0.000000e+00  0.000000e+00  0.000000e+00  0.029000
  3.000000
  3.000000
  4  1  5  0  0.000000e+00  0.000000e+00  0.000000e+00  0.000000e+00  0.029000
  3.000000
  3.000000
  5  1  6  0  0.000000e+00  0.000000e+00  0.000000e+00  0.000000e+00  0.029000
  3.000000
  3.000000
  6  1  7  0  0.000000e+00  0.000000e+00  0.000000e+00  0.000000e+00  0.029000
  3.000000
  3.000000
  7  1  0  0  0.000000e+00  0.000000e+00  0.000000e+00  0.000000e+00  0.029000
  3.000000
  3.000000
