# DRN package for MODFLOW-2005 generated by Flopy 3.8.2
       328        50
       328         0 # stress period 1
         1        47        52         124.838          0.0012
         1        48        52         124.835          0.0018
         1        49        52         124.832          0.0006
         1        49        53          124.83          0.0024
         1        50        53         124.824          0.0018
         1        50        54         124.822          0.0006
         1        51        54         124.818          0.0024
         1        52        54         124.814          0.0012
         1        52        55         124.811          0.0006
         1        53        55         124.807          0.0024
         1        54        55         124.803          0.0006
         1        54        56           124.8          0.0012
         1        55        56         124.796          0.0018
         1        56        56         124.792          0.0006
         1        56        57          124.79          0.0018
         1        57        57         124.785          0.0018
         1        58        57         124.782          0.0006
         1        58        58         124.779          0.0024
         1        59        58         124.774          0.0018
         1        59        59         124.771          0.0006
         1        60        59         124.768          0.0024
         1        61        59         124.763          0.0012
         1        61        60          124.76          0.0006
         1        62        60         124.757          0.0018
         1        63        60         124.752          0.0012
         1        63        61          124.75          0.0012
         1        64        61         124.745          0.0018
         1        65        61         124.742          0.0006
         1        65        62         124.739          0.0018
         1        66        62         124.734          0.0018
         1        67        62         124.731          0.0006
         1        67        63         124.728          0.0024
         1        68        63         124.723          0.0018
         1        68        64          124.72          0.0006
         1        69        64         124.717          0.0018
         1        70        64         124.713          0.0018
         1        70        65          124.71          0.0006
         1        71        65         124.706          0.0018
         1        72        65         124.702          0.0012
         1        72        66         124.699          0.0012
         1        73        66         124.695          0.0018
         1        74        66         124.691          0.0006
         1        74        67         124.688          0.0018
         1        75        67         124.684          0.0018
         1        76        67          124.68          0.0006
         1        76        68         124.678          0.0018
         1        77        68         124.673          0.0018
         1        77        69          124.67          0.0006
         1        78        69         124.667          0.0018
         1        79        69         124.662          0.0018
         1        79        70         124.659          0.0006
         1        80        70         124.655          0.0018
         1        81        70         124.651          0.0012
         1        81        71         124.648          0.0012
         1        82        71         124.644          0.0018
         1        83        71         124.641          0.0006
         1        83        72         124.638          0.0012
         1        84        72         124.633          0.0024
         1        85        72          124.63          0.0006
         1        85        73         124.627          0.0018
         1        86        73         124.622          0.0018
         1        86        74         124.619          0.0006
         1        87        74         124.616          0.0018
         1        88        74         124.611          0.0018
         1        88        75         124.608          0.0006
         1        89        75         124.605          0.0018
         1        90        75         124.601          0.0012
         1        90        76         124.598          0.0006
         1        91        76         124.594          0.0024
         1        92        76          124.59          0.0006
         1        92        77         124.587          0.0012
         1        93        77         124.585          0.0006
         1        94        77         124.585          0.0006
         1        94        78         124.584          0.0012
         1        95        78         124.584          0.0024
         1        96        78         124.584          0.0006
         1        96        79         124.584          0.0018
         1        97        79         124.584          0.0018
         1        97        80         124.583          0.0006
         1        98        80         124.583          0.0018
         1        99        80         124.583          0.0012
         1        99        81         124.583          0.0012
         1       100        81         124.583          0.0018
         1       101        81         124.582          0.0006
         1       101        82         124.582          0.0012
         1       102        82         124.582          0.0024
         1       103        82         124.582          0.0006
         1       103        83         124.582          0.0018
         1       104        83         124.581          0.0024
         1       104        84         124.581          0.0006
         1       105        84         124.581          0.0018
         1       106        84         124.581          0.0018
         1       106        85          124.58          0.0006
         1       107        85          124.58          0.0018
         1       108        85          124.58          0.0012
         1       108        86          124.58          0.0006
         1       109        86          124.58          0.0024
         1       110        86         124.579          0.0006
         1       110        87         124.579          0.0012
         1       111        87         124.579          0.0024
         1       112        87         124.579          0.0006
         1       112        88         124.579          0.0018
         1       113        88         124.578          0.0018
         1       113        89         124.578          0.0006
         1       114        89         124.578          0.0018
         1       115        89         124.578          0.0012
         1       115        90         124.578          0.0012
         1       116        90         124.577          0.0018
         1       117        90         124.577          0.0012
         1       117        91         124.577          0.0006
         1       118        91         124.577          0.0024
         1       119        91         124.576          0.0006
         1       119        92         124.576          0.0012
         1       120        92         124.576          0.0024
         1       121        92         124.576          0.0006
         1       121        93         124.576          0.0018
         1       122        93         124.575          0.0018
         1       122        94         124.575          0.0006
         1       123        94         124.575          0.0018
         1       124        94         124.575          0.0012
         1       124        95         124.575          0.0006
         1       125        95         124.574          0.0024
         1       126        95         124.574          0.0006
         1       126        96         124.574          0.0006
         1       127        96         124.573          0.0024
         1       128        96         124.573          0.0006
         1       128        97         124.573          0.0012
         1       129        97         124.572          0.0024
         1       130        97         124.572          0.0006
         1       130        98         124.571          0.0018
         1       131        98          124.57          0.0018
         1       131        99          124.57          0.0006
         1       132        99          124.57          0.0018
         1       133        99         124.569          0.0018
         1       133       100         124.569          0.0006
         1       134       100         124.568          0.0024
         1       135       100         124.568          0.0012
         1       135       101         124.567          0.0006
         1       136       101         124.567          0.0024
         1       137       101         124.566          0.0006
         1       137       102         124.566          0.0012
         1       138       102         124.565          0.0018
         1       139       102         124.565          0.0006
         1       139       103         124.564          0.0018
         1       140       103         124.564          0.0018
         1       141       103         124.563          0.0006
         1       141       104         124.563          0.0024
         1       142       104         124.562          0.0018
         1       142       105         124.562          0.0006
         1       143       105         124.562          0.0024
         1       144       105         124.561          0.0012
         1       144       106         124.561          0.0006
         1       145       106          124.56          0.0018
         1       146       106         124.559          0.0012
         1       146       107         124.559          0.0012
         1       147       107         124.559          0.0018
         1       148       107         124.558          0.0006
         1       148       108         124.558          0.0018
         1       149       108         124.557          0.0018
         1       150       108         124.557          0.0006
         1       150       109         124.556          0.0018
         1       151       109         124.556          0.0018
         1       151       110         124.555          0.0006
         1       152       110         124.555          0.0018
         1       153       110         124.554          0.0018
         1       153       111         124.554          0.0006
         1       154       111         124.553          0.0018
         1       155       111         124.553          0.0012
         1       155       112         124.552          0.0012
         1       156       112         124.552          0.0006
         1       157       112         124.542          0.0018
         1       158       112         124.533          0.0018
         1       159       112         124.524          0.0018
         1       160       112         124.514          0.0018
         1       161       112         124.505          0.0018
         1       162       112         124.496          0.0018
         1       163       112         124.487          0.0018
         1       164       112         124.478          0.0018
         1       165       112         124.469          0.0018
         1       166       112         124.464          0.0006
         1       167       112         124.461          0.0012
         1       167       113          124.46          0.0006
         1       168       113         124.459          0.0018
         1       169       113         124.457          0.0018
         1       169       114         124.456          0.0006
         1       170       114         124.455          0.0018
         1       171       114         124.453          0.0018
         1       171       115         124.452          0.0006
         1       172       115         124.451          0.0024
         1       173       115         124.449          0.0012
         1       173       116         124.448          0.0006
         1       174       116         124.447          0.0018
         1       175       116         124.445          0.0018
         1       175       117         124.444          0.0006
         1       176       117         124.443          0.0018
         1       177       117         124.441          0.0018
         1       177       118          124.44          0.0006
         1       178       118         124.439          0.0024
         1       179       118         124.437          0.0018
         1       180       118         124.436          0.0006
         1       180       119         124.435          0.0018
         1       181       119         124.433          0.0024
         1       182       119         124.432          0.0006
         1       182       120         124.431          0.0018
         1       183       120         124.429          0.0018
         1       184       120         124.428          0.0006
         1       184       121         124.427          0.0018
         1       185       121         124.426          0.0018
         1       186       121         124.424          0.0006
         1       186       122         124.423          0.0012
         1       187       122         124.422          0.0024
         1       188       122          124.42          0.0006
         1       188       123         124.419          0.0012
         1       189       123         124.418          0.0018
         1       190       123         124.416          0.0012
         1       190       124         124.415          0.0012
         1       191       124         124.414          0.0018
         1       192       124         124.412          0.0012
         1       192       125         124.411          0.0006
         1       193       125          124.41          0.0024
         1       194       125         124.408          0.0006
         1       194       126         124.407          0.0012
         1       195       126         124.406          0.0018
         1       196       126         124.404          0.0012
         1       196       127         124.403          0.0012
         1       197       127         124.402          0.0018
         1       198       127           124.4          0.0012
         1       198       128         124.399          0.0006
         1       199       128         124.398          0.0024
         1       200       128         124.396          0.0012
         1       200       129         124.395          0.0006
         1       201       129         124.394          0.0018
         1       202       129         124.392          0.0018
         1       202       130         124.391          0.0006
         1       203       130          124.39          0.0018
         1       204       130         124.388          0.0018
         1       204       131         124.387          0.0006
         1       205       131         124.386          0.0024
         1       206       131         124.385          0.0006
         1       206       132         124.382          0.0006
         1       207       132          124.38          0.0018
         1       208       132         124.378          0.0024
         1       209       132         124.376          0.0006
         1       209       133         124.374          0.0012
         1       210       133         124.372          0.0018
         1       211       133         124.369          0.0012
         1       211       134         124.368          0.0006
         1       212       134         124.366          0.0024
         1       213       134         124.363          0.0018
         1       214       134         124.362          0.0006
         1       214       135          124.36          0.0018
         1       215       135         124.357          0.0018
         1       216       135         124.355          0.0012
         1       216       136         124.354          0.0012
         1       217       136         124.352          0.0018
         1       218       136         124.349          0.0012
         1       218       137         124.348          0.0006
         1       219       137         124.346          0.0018
         1       220       137         124.343          0.0024
         1       221       137         124.341          0.0006
         1       221       138          124.34          0.0018
         1       222       138         124.337          0.0018
         1       223       138         124.335          0.0012
         1       223       139         124.334          0.0006
         1       224       139         124.332          0.0024
         1       225       139         124.329          0.0012
         1       225       140         124.328          0.0006
         1       226       140         124.326          0.0018
         1       227       140         124.323          0.0024
         1       228       140         124.321          0.0006
         1       228       141          124.32          0.0018
         1       229       141         124.317          0.0018
         1       230       141         124.315          0.0012
         1       230       142         124.314          0.0006
         1       231       142         124.311          0.0024
         1       232       142         124.309          0.0012
         1       232       143         124.307          0.0006
         1       233       143         124.306          0.0018
         1       234       143         124.303          0.0018
         1       235       143           124.3          0.0006
         1       235       144         124.296          0.0018
         1       236       144         124.288          0.0018
         1       237       144         124.282          0.0012
         1       237       145         124.278          0.0012
         1       238       145         124.271          0.0018
         1       239       145         124.264          0.0018
         1       239       146         124.259          0.0006
         1       240       146         124.254          0.0024
         1       241       146         124.246          0.0018
         1       242       146         124.241          0.0006
         1       242       147         124.237          0.0018
         1       243       147         124.229          0.0018
         1       244       147         124.223          0.0012
         1       244       148         124.219          0.0012
         1       245       148         124.212          0.0018
         1       246       148         124.205          0.0012
         1       246       149           124.2          0.0006
         1       247       149         124.195          0.0018
         1       248       149         124.187          0.0024
         1       249       149         124.182          0.0006
         1       249       150         124.178          0.0018
         1       250       150          124.17          0.0018
         1       251       150         124.164          0.0012
         1       251       151         124.159          0.0006
         1       252       151         124.153          0.0024
         1       253       151         124.145          0.0012
         1       253       152         124.141          0.0006
         1       254       152         124.136          0.0018
         1       255       152         124.128          0.0018
         1       256       152         124.123          0.0006
         1       256       153         124.119          0.0018
         1       257       153         124.111          0.0018
         1       258       153         124.104          0.0006
         1       258       154           124.1          0.0012
         1       259       154         124.094          0.0024
         1       260       154         124.086          0.0012
         1       260       155         124.082          0.0006
         1       261       155         124.077          0.0018
         1       262       155         124.068          0.0018
         1       263       155         124.064          0.0006
         1       263       156         124.059          0.0018
         1       264       156         124.051          0.0018
         1       265       156         124.045          0.0006
         1       265       157         124.041          0.0012
         1       266       157         124.035          0.0018
         1       267       157         124.027          0.0018
         1       267       158         124.023          0.0006
         1       268       158         124.021          0.0006
